/*---------------------------------------------------------------------------*\
| =========                 |                                                 |
| \\      /  F ield         | OpenFOAM: The Open Source CFD Toolbox           |
|  \\    /   O peration     | Version:  v1706                                 |
|   \\  /    A nd           | Web:      www.OpenFOAM.com                      |
|    \\/     M anipulation  |                                                 |
\*---------------------------------------------------------------------------*/
Build  : v1706
Arch   : "LSB;label=32;scalar=64"
Exec   : simpleFoam -parallel -case /home/cho/nsx_np2
Date   : Jan 20 2018
Time   : 01:16:39
Host   : "cho-VirtualBox"
PID    : 5179
Case   : /home/cho/nsx_np2
nProcs : 2
Slaves : 1("cho-VirtualBox.5180")
Pstream initialized with:
    floatTransfer      : 0
    nProcsSimpleSum    : 0
    commsType          : nonBlocking
    polling iterations : 0
sigFpe : Enabling floating point exception trapping (FOAM_SIGFPE).
fileModificationChecking : Monitoring run-time modified files using timeStampMaster (fileModificationSkew 10)
allowSystemOperations : Allowing user-supplied system call operations

// * * * * * * * * * * * * * * * * * * * * * * * * * * * * * * * * * * * * * //
Create time

Create mesh for time = 0


SIMPLE: convergence criteria
    field U	 tolerance 1e-05
    field k	 tolerance 1e-05
    field epsilon	 tolerance 1e-05
    field omega	 tolerance 1e-05
    field nuTilda	 tolerance 1e-05
    field T	 tolerance 1e-05
    field p_rgh	 tolerance 1e-05
    field p	 tolerance 1e-05

Reading field p

Reading field U

Reading/calculating face flux field phi

Selecting incompressible transport model Newtonian
Selecting turbulence model type laminar
Selecting laminar stress model Stokes
No MRF models present

Creating finite volume options from "system/fvOptions"


Starting time loop

Time = 1

smoothSolver:  Solving for Ux, Initial residual = 1, Final residual = 6.911624043e-09, No Iterations 1
smoothSolver:  Solving for Uy, Initial residual = 0.9577340385, Final residual = 5.765551103e-09, No Iterations 1
smoothSolver:  Solving for Uz, Initial residual = 0.9594027647, Final residual = 4.614213089e-09, No Iterations 1
GAMG:  Solving for p, Initial residual = 1, Final residual = 0.009526264352, No Iterations 12
time step continuity errors : sum local = 0.001474646699, global = -0.0002219837214, cumulative = -0.0002219837214
ExecutionTime = 5.95 s  ClockTime = 6 s

Time = 2

smoothSolver:  Solving for Ux, Initial residual = 0.1821293669, Final residual = 0.00482966187, No Iterations 1
smoothSolver:  Solving for Uy, Initial residual = 0.1051391384, Final residual = 0.009891978675, No Iterations 1
smoothSolver:  Solving for Uz, Initial residual = 0.1294573568, Final residual = 0.01225937658, No Iterations 1
GAMG:  Solving for p, Initial residual = 0.9999963806, Final residual = 0.009253006763, No Iterations 12
time step continuity errors : sum local = 0.001154533708, global = -0.0001996606396, cumulative = -0.000421644361
ExecutionTime = 8.56 s  ClockTime = 9 s

Time = 3

smoothSolver:  Solving for Ux, Initial residual = 0.9517589773, Final residual = 0.03493255978, No Iterations 1
smoothSolver:  Solving for Uy, Initial residual = 0.4348312392, Final residual = 0.01071529397, No Iterations 2
smoothSolver:  Solving for Uz, Initial residual = 0.4221433745, Final residual = 0.01105697574, No Iterations 2
GAMG:  Solving for p, Initial residual = 0.006747806707, Final residual = 6.636710125e-05, No Iterations 9
time step continuity errors : sum local = 0.001000514557, global = -0.0001840057629, cumulative = -0.0006056501239
ExecutionTime = 10.84 s  ClockTime = 11 s

Time = 4

smoothSolver:  Solving for Ux, Initial residual = 0.880036755, Final residual = 0.03538983038, No Iterations 1
smoothSolver:  Solving for Uy, Initial residual = 0.2041900925, Final residual = 0.005544210883, No Iterations 2
smoothSolver:  Solving for Uz, Initial residual = 0.1988328539, Final residual = 0.005079339577, No Iterations 2
GAMG:  Solving for p, Initial residual = 0.01416008535, Final residual = 0.0001340416583, No Iterations 11
time step continuity errors : sum local = 0.001499561088, global = -0.0002610913972, cumulative = -0.0008667415211
ExecutionTime = 13.32 s  ClockTime = 14 s

Time = 5

smoothSolver:  Solving for Ux, Initial residual = 0.560665601, Final residual = 0.01849243973, No Iterations 1
smoothSolver:  Solving for Uy, Initial residual = 0.116605104, Final residual = 0.009884855586, No Iterations 1
smoothSolver:  Solving for Uz, Initial residual = 0.1050353544, Final residual = 0.002994742794, No Iterations 2
GAMG:  Solving for p, Initial residual = 0.04890446164, Final residual = 0.0004466810449, No Iterations 10
time step continuity errors : sum local = 0.001107389789, global = 0.000186466318, cumulative = -0.0006802752031
ExecutionTime = 15.72 s  ClockTime = 17 s

Time = 6

smoothSolver:  Solving for Ux, Initial residual = 0.8583738168, Final residual = 0.03754517369, No Iterations 1
smoothSolver:  Solving for Uy, Initial residual = 0.1778992012, Final residual = 0.005780613308, No Iterations 2
smoothSolver:  Solving for Uz, Initial residual = 0.1854807148, Final residual = 0.006535288889, No Iterations 2
GAMG:  Solving for p, Initial residual = 0.01631631516, Final residual = 0.0001573400836, No Iterations 8
time step continuity errors : sum local = 0.001490753635, global = -0.0002400874686, cumulative = -0.0009203626717
ExecutionTime = 17.9 s  ClockTime = 19 s

Time = 7

smoothSolver:  Solving for Ux, Initial residual = 0.7810632529, Final residual = 0.03553692792, No Iterations 1
smoothSolver:  Solving for Uy, Initial residual = 0.22843839, Final residual = 0.005452568115, No Iterations 2
smoothSolver:  Solving for Uz, Initial residual = 0.2048048509, Final residual = 0.01911313271, No Iterations 1
GAMG:  Solving for p, Initial residual = 0.02329358081, Final residual = 0.000168480156, No Iterations 11
time step continuity errors : sum local = 0.0009247308041, global = 0.000158295816, cumulative = -0.0007620668557
ExecutionTime = 20.38 s  ClockTime = 22 s

Time = 8

smoothSolver:  Solving for Ux, Initial residual = 0.6407501052, Final residual = 0.02083111481, No Iterations 1
smoothSolver:  Solving for Uy, Initial residual = 0.2195253536, Final residual = 0.01703249348, No Iterations 1
smoothSolver:  Solving for Uz, Initial residual = 0.1821329875, Final residual = 0.0170255269, No Iterations 1
GAMG:  Solving for p, Initial residual = 0.04598764898, Final residual = 0.000336792638, No Iterations 9
time step continuity errors : sum local = 0.0009019754843, global = 0.0001512753134, cumulative = -0.0006107915423
ExecutionTime = 22.78 s  ClockTime = 24 s

Time = 9

smoothSolver:  Solving for Ux, Initial residual = 0.7976250718, Final residual = 0.0326966098, No Iterations 1
smoothSolver:  Solving for Uy, Initial residual = 0.1334964821, Final residual = 0.003254529491, No Iterations 2
smoothSolver:  Solving for Uz, Initial residual = 0.1365947287, Final residual = 0.003288335799, No Iterations 2
GAMG:  Solving for p, Initial residual = 0.02351393316, Final residual = 0.0002063241861, No Iterations 8
time step continuity errors : sum local = 0.001174826531, global = 0.000188499293, cumulative = -0.0004222922493
ExecutionTime = 25.15 s  ClockTime = 27 s

Time = 10

smoothSolver:  Solving for Ux, Initial residual = 0.5094057555, Final residual = 0.02600962648, No Iterations 1
smoothSolver:  Solving for Uy, Initial residual = 0.1400165029, Final residual = 0.01281316912, No Iterations 1
smoothSolver:  Solving for Uz, Initial residual = 0.1098091597, Final residual = 0.008678175848, No Iterations 1
GAMG:  Solving for p, Initial residual = 0.04111909093, Final residual = 0.0003177246242, No Iterations 10
time step continuity errors : sum local = 0.000789470408, global = 0.0001327076015, cumulative = -0.0002895846478
ExecutionTime = 27.67 s  ClockTime = 29 s

Time = 11

smoothSolver:  Solving for Ux, Initial residual = 0.6066152836, Final residual = 0.02114428832, No Iterations 1
smoothSolver:  Solving for Uy, Initial residual = 0.1208041343, Final residual = 0.01110420535, No Iterations 1
smoothSolver:  Solving for Uz, Initial residual = 0.1009345648, Final residual = 0.002508051662, No Iterations 2
GAMG:  Solving for p, Initial residual = 0.04963234436, Final residual = 0.0004850185211, No Iterations 7
time step continuity errors : sum local = 0.001104717082, global = -0.0001692496939, cumulative = -0.0004588343417
ExecutionTime = 29.94 s  ClockTime = 32 s

Time = 12

smoothSolver:  Solving for Ux, Initial residual = 0.695679727, Final residual = 0.02992868651, No Iterations 1
smoothSolver:  Solving for Uy, Initial residual = 0.08016311835, Final residual = 0.002068025481, No Iterations 2
smoothSolver:  Solving for Uz, Initial residual = 0.0805687359, Final residual = 0.002079482618, No Iterations 2
GAMG:  Solving for p, Initial residual = 0.03379721257, Final residual = 0.0002494455608, No Iterations 8
time step continuity errors : sum local = 0.0008283556389, global = -0.0001336949284, cumulative = -0.0005925292701
ExecutionTime = 32.43 s  ClockTime = 34 s

Time = 13

smoothSolver:  Solving for Ux, Initial residual = 0.2898545715, Final residual = 0.01652956588, No Iterations 1
smoothSolver:  Solving for Uy, Initial residual = 0.135643317, Final residual = 0.01090114413, No Iterations 1
smoothSolver:  Solving for Uz, Initial residual = 0.1111857556, Final residual = 0.008184099845, No Iterations 1
GAMG:  Solving for p, Initial residual = 0.0887224825, Final residual = 0.0006671814079, No Iterations 9
time step continuity errors : sum local = 0.0006872565962, global = 0.0001231378487, cumulative = -0.0004693914213
ExecutionTime = 35.03 s  ClockTime = 37 s

Time = 14

smoothSolver:  Solving for Ux, Initial residual = 0.4723950082, Final residual = 0.01689873565, No Iterations 1
smoothSolver:  Solving for Uy, Initial residual = 0.114020003, Final residual = 0.01017703125, No Iterations 1
smoothSolver:  Solving for Uz, Initial residual = 0.1012536268, Final residual = 0.009842104439, No Iterations 1
GAMG:  Solving for p, Initial residual = 0.05836604515, Final residual = 0.0004337065002, No Iterations 7
time step continuity errors : sum local = 0.0007240343863, global = -0.0001218394688, cumulative = -0.0005912308902
ExecutionTime = 37.24 s  ClockTime = 39 s

Time = 15

smoothSolver:  Solving for Ux, Initial residual = 0.473249629, Final residual = 0.02041562207, No Iterations 1
smoothSolver:  Solving for Uy, Initial residual = 0.064617299, Final residual = 0.005440520701, No Iterations 1
smoothSolver:  Solving for Uz, Initial residual = 0.06260946413, Final residual = 0.006193985515, No Iterations 1
GAMG:  Solving for p, Initial residual = 0.04853957407, Final residual = 0.0004566338178, No Iterations 7
time step continuity errors : sum local = 0.0008530092983, global = -0.0001725127149, cumulative = -0.0007637436051
ExecutionTime = 39.45 s  ClockTime = 41 s

Time = 16

smoothSolver:  Solving for Ux, Initial residual = 0.1289325965, Final residual = 0.006652182345, No Iterations 1
smoothSolver:  Solving for Uy, Initial residual = 0.08792506209, Final residual = 0.007449682786, No Iterations 1
smoothSolver:  Solving for Uz, Initial residual = 0.06653531738, Final residual = 0.004891069547, No Iterations 1
GAMG:  Solving for p, Initial residual = 0.2288050165, Final residual = 0.001608383098, No Iterations 8
time step continuity errors : sum local = 0.0005677069914, global = 9.07162881e-05, cumulative = -0.000673027317
ExecutionTime = 41.84 s  ClockTime = 44 s

Time = 17

smoothSolver:  Solving for Ux, Initial residual = 0.3772148643, Final residual = 0.01308263891, No Iterations 1
smoothSolver:  Solving for Uy, Initial residual = 0.06066585607, Final residual = 0.001441907209, No Iterations 2
smoothSolver:  Solving for Uz, Initial residual = 0.05488797872, Final residual = 0.001273259833, No Iterations 2
GAMG:  Solving for p, Initial residual = 0.0713394059, Final residual = 0.0006805508597, No Iterations 6
time step continuity errors : sum local = 0.0007984540849, global = -0.0001452240613, cumulative = -0.0008182513783
ExecutionTime = 44.08 s  ClockTime = 46 s

Time = 18

smoothSolver:  Solving for Ux, Initial residual = 0.327789386, Final residual = 0.01367472466, No Iterations 1
smoothSolver:  Solving for Uy, Initial residual = 0.05145694591, Final residual = 0.004024469467, No Iterations 1
smoothSolver:  Solving for Uz, Initial residual = 0.04474438942, Final residual = 0.003937863899, No Iterations 1
GAMG:  Solving for p, Initial residual = 0.07312120434, Final residual = 0.0005078349691, No Iterations 7
time step continuity errors : sum local = 0.0005315668698, global = 0.0001013954491, cumulative = -0.0007168559292
ExecutionTime = 46.32 s  ClockTime = 48 s

Time = 19

smoothSolver:  Solving for Ux, Initial residual = 0.1165558985, Final residual = 0.003522968674, No Iterations 1
smoothSolver:  Solving for Uy, Initial residual = 0.07746042728, Final residual = 0.006205870727, No Iterations 1
smoothSolver:  Solving for Uz, Initial residual = 0.06606020755, Final residual = 0.004857617195, No Iterations 1
GAMG:  Solving for p, Initial residual = 0.4285421858, Final residual = 0.003356052612, No Iterations 7
time step continuity errors : sum local = 0.0005634092556, global = 0.0001081949751, cumulative = -0.0006086609542
ExecutionTime = 48.53 s  ClockTime = 51 s

Time = 20

smoothSolver:  Solving for Ux, Initial residual = 0.2563132215, Final residual = 0.009417605409, No Iterations 1
smoothSolver:  Solving for Uy, Initial residual = 0.05247092304, Final residual = 0.005158846078, No Iterations 1
smoothSolver:  Solving for Uz, Initial residual = 0.05325637033, Final residual = 0.005100397039, No Iterations 1
GAMG:  Solving for p, Initial residual = 0.09335195463, Final residual = 0.0007323190607, No Iterations 6
time step continuity errors : sum local = 0.0005704282497, global = 0.0001065637753, cumulative = -0.0005020971788
ExecutionTime = 50.45 s  ClockTime = 53 s

Time = 21

smoothSolver:  Solving for Ux, Initial residual = 0.1670591907, Final residual = 0.007485730052, No Iterations 1
smoothSolver:  Solving for Uy, Initial residual = 0.04249010688, Final residual = 0.003437963554, No Iterations 1
smoothSolver:  Solving for Uz, Initial residual = 0.03628218653, Final residual = 0.003586509739, No Iterations 1
GAMG:  Solving for p, Initial residual = 0.1165106135, Final residual = 0.0009089473229, No Iterations 6
time step continuity errors : sum local = 0.0005204426717, global = 6.724701447e-05, cumulative = -0.0004348501644
ExecutionTime = 52.46 s  ClockTime = 55 s

Time = 22

smoothSolver:  Solving for Ux, Initial residual = 0.1016527613, Final residual = 0.002959614447, No Iterations 1
smoothSolver:  Solving for Uy, Initial residual = 0.04623615412, Final residual = 0.004334203248, No Iterations 1
smoothSolver:  Solving for Uz, Initial residual = 0.04000294099, Final residual = 0.003320005831, No Iterations 1
GAMG:  Solving for p, Initial residual = 0.2563397209, Final residual = 0.001847798619, No Iterations 6
time step continuity errors : sum local = 0.0004648039641, global = 0.0001024477197, cumulative = -0.0003324024447
ExecutionTime = 54.61 s  ClockTime = 57 s

Time = 23

smoothSolver:  Solving for Ux, Initial residual = 0.1679800072, Final residual = 0.005604312673, No Iterations 1
smoothSolver:  Solving for Uy, Initial residual = 0.03024081897, Final residual = 0.0009607509783, No Iterations 2
smoothSolver:  Solving for Uz, Initial residual = 0.03180786701, Final residual = 0.0009057688185, No Iterations 2
GAMG:  Solving for p, Initial residual = 0.1218248875, Final residual = 0.001149268058, No Iterations 5
time step continuity errors : sum local = 0.0006070384455, global = 1.851897735e-05, cumulative = -0.0003138834673
ExecutionTime = 56.7 s  ClockTime = 60 s

Time = 24

smoothSolver:  Solving for Ux, Initial residual = 0.09096691996, Final residual = 0.00361217315, No Iterations 1
smoothSolver:  Solving for Uy, Initial residual = 0.03988603853, Final residual = 0.00338059971, No Iterations 1
smoothSolver:  Solving for Uz, Initial residual = 0.0310635221, Final residual = 0.00299099779, No Iterations 1
GAMG:  Solving for p, Initial residual = 0.1801162526, Final residual = 0.001167959249, No Iterations 6
time step continuity errors : sum local = 0.0003921408737, global = -8.639810578e-05, cumulative = -0.0004002815731
ExecutionTime = 58.81 s  ClockTime = 62 s

Time = 25

smoothSolver:  Solving for Ux, Initial residual = 0.08858949067, Final residual = 0.002973134808, No Iterations 1
smoothSolver:  Solving for Uy, Initial residual = 0.04196308071, Final residual = 0.003939253694, No Iterations 1
smoothSolver:  Solving for Uz, Initial residual = 0.03919858075, Final residual = 0.003294199382, No Iterations 1
GAMG:  Solving for p, Initial residual = 0.2526396448, Final residual = 0.002046883394, No Iterations 5
time step continuity errors : sum local = 0.0004772734337, global = -4.922962724e-05, cumulative = -0.0004495112003
ExecutionTime = 60.8 s  ClockTime = 64 s

Time = 26

smoothSolver:  Solving for Ux, Initial residual = 0.1085284809, Final residual = 0.004353189414, No Iterations 1
smoothSolver:  Solving for Uy, Initial residual = 0.02915131445, Final residual = 0.0009246654859, No Iterations 2
smoothSolver:  Solving for Uz, Initial residual = 0.0311222983, Final residual = 0.0008432383273, No Iterations 2
GAMG:  Solving for p, Initial residual = 0.1676955046, Final residual = 0.001371404481, No Iterations 5
time step continuity errors : sum local = 0.0004711433939, global = 3.180437523e-05, cumulative = -0.0004177068251
ExecutionTime = 62.86 s  ClockTime = 66 s

Time = 27

smoothSolver:  Solving for Ux, Initial residual = 0.05889082911, Final residual = 0.0028249448, No Iterations 1
smoothSolver:  Solving for Uy, Initial residual = 0.02703396625, Final residual = 0.0008554627608, No Iterations 2
smoothSolver:  Solving for Uz, Initial residual = 0.02302320808, Final residual = 0.0008088339346, No Iterations 2
GAMG:  Solving for p, Initial residual = 0.2807291991, Final residual = 0.001733536173, No Iterations 5
time step continuity errors : sum local = 0.0003406285395, global = -6.552950105e-06, cumulative = -0.0004242597752
ExecutionTime = 64.98 s  ClockTime = 68 s

Time = 28

smoothSolver:  Solving for Ux, Initial residual = 0.07017961764, Final residual = 0.002428664725, No Iterations 1
smoothSolver:  Solving for Uy, Initial residual = 0.02504540732, Final residual = 0.0009065074256, No Iterations 2
smoothSolver:  Solving for Uz, Initial residual = 0.02631458947, Final residual = 0.0008587192593, No Iterations 2
GAMG:  Solving for p, Initial residual = 0.2469489869, Final residual = 0.001459894761, No Iterations 5
time step continuity errors : sum local = 0.0003197532249, global = 2.551341718e-05, cumulative = -0.000398746358
ExecutionTime = 67.05 s  ClockTime = 70 s

Time = 29

smoothSolver:  Solving for Ux, Initial residual = 0.06889843222, Final residual = 0.002659382623, No Iterations 1
smoothSolver:  Solving for Uy, Initial residual = 0.02536962926, Final residual = 0.0009162271284, No Iterations 2
smoothSolver:  Solving for Uz, Initial residual = 0.02334736221, Final residual = 0.0008927312787, No Iterations 2
GAMG:  Solving for p, Initial residual = 0.2110466822, Final residual = 0.00141982467, No Iterations 5
time step continuity errors : sum local = 0.0003548195876, global = -3.082423695e-05, cumulative = -0.000429570595
ExecutionTime = 69.15 s  ClockTime = 72 s

Time = 30

smoothSolver:  Solving for Ux, Initial residual = 0.0455501612, Final residual = 0.002049605397, No Iterations 1
smoothSolver:  Solving for Uy, Initial residual = 0.03039627937, Final residual = 0.000956744216, No Iterations 2
smoothSolver:  Solving for Uz, Initial residual = 0.0238203292, Final residual = 0.0008920935056, No Iterations 2
GAMG:  Solving for p, Initial residual = 0.3467357477, Final residual = 0.001717048667, No Iterations 5
time step continuity errors : sum local = 0.0002539038951, global = -2.763407227e-05, cumulative = -0.0004572046673
ExecutionTime = 71.13 s  ClockTime = 74 s

Time = 31

smoothSolver:  Solving for Ux, Initial residual = 0.05586061174, Final residual = 0.002586529598, No Iterations 1
smoothSolver:  Solving for Uy, Initial residual = 0.02677592191, Final residual = 0.0009645305179, No Iterations 2
smoothSolver:  Solving for Uz, Initial residual = 0.02665650315, Final residual = 0.0009194021314, No Iterations 2
GAMG:  Solving for p, Initial residual = 0.292833862, Final residual = 0.002152323309, No Iterations 4
time step continuity errors : sum local = 0.0003694376537, global = -1.895911856e-05, cumulative = -0.0004761637858
ExecutionTime = 72.91 s  ClockTime = 77 s

Time = 32

smoothSolver:  Solving for Ux, Initial residual = 0.0500367586, Final residual = 0.002622452921, No Iterations 1
smoothSolver:  Solving for Uy, Initial residual = 0.0222056314, Final residual = 0.000938534978, No Iterations 2
smoothSolver:  Solving for Uz, Initial residual = 0.02309660509, Final residual = 0.0009530446476, No Iterations 2
GAMG:  Solving for p, Initial residual = 0.2868680487, Final residual = 0.001484276177, No Iterations 5
time step continuity errors : sum local = 0.0002552056733, global = 2.879075376e-05, cumulative = -0.000447373032
ExecutionTime = 74.88 s  ClockTime = 79 s

Time = 33

smoothSolver:  Solving for Ux, Initial residual = 0.04171313822, Final residual = 0.002181951605, No Iterations 1
smoothSolver:  Solving for Uy, Initial residual = 0.02093610492, Final residual = 0.0009469839456, No Iterations 2
smoothSolver:  Solving for Uz, Initial residual = 0.01910309039, Final residual = 0.0009845529211, No Iterations 2
GAMG:  Solving for p, Initial residual = 0.4241540309, Final residual = 0.003575687224, No Iterations 4
time step continuity errors : sum local = 0.00040520383, global = -4.718717456e-05, cumulative = -0.0004945602066
ExecutionTime = 76.72 s  ClockTime = 81 s

Time = 34

smoothSolver:  Solving for Ux, Initial residual = 0.04522187273, Final residual = 0.002180778805, No Iterations 1
smoothSolver:  Solving for Uy, Initial residual = 0.02112530979, Final residual = 0.0009791448371, No Iterations 2
smoothSolver:  Solving for Uz, Initial residual = 0.02081085796, Final residual = 0.001025931186, No Iterations 2
GAMG:  Solving for p, Initial residual = 0.2951257972, Final residual = 0.001631489675, No Iterations 4
time step continuity errors : sum local = 0.000260985371, global = 9.95655895e-06, cumulative = -0.0004846036477
ExecutionTime = 78.47 s  ClockTime = 83 s

Time = 35

smoothSolver:  Solving for Ux, Initial residual = 0.04049746454, Final residual = 0.002102154957, No Iterations 1
smoothSolver:  Solving for Uy, Initial residual = 0.02434199631, Final residual = 0.001018448694, No Iterations 2
smoothSolver:  Solving for Uz, Initial residual = 0.02049784568, Final residual = 0.001048130464, No Iterations 2
GAMG:  Solving for p, Initial residual = 0.3088048425, Final residual = 0.00229266368, No Iterations 4
time step continuity errors : sum local = 0.0003441279191, global = 4.703756055e-05, cumulative = -0.0004375660871
ExecutionTime = 80.26 s  ClockTime = 85 s

Time = 36

smoothSolver:  Solving for Ux, Initial residual = 0.03597091942, Final residual = 0.002112435326, No Iterations 1
smoothSolver:  Solving for Uy, Initial residual = 0.02489659868, Final residual = 0.001038929093, No Iterations 2
smoothSolver:  Solving for Uz, Initial residual = 0.02044952423, Final residual = 0.001067330094, No Iterations 2
GAMG:  Solving for p, Initial residual = 0.4224773094, Final residual = 0.002373000384, No Iterations 4
time step continuity errors : sum local = 0.0002564233708, global = 1.281799612e-06, cumulative = -0.0004362842875
ExecutionTime = 82.07 s  ClockTime = 87 s

Time = 37

smoothSolver:  Solving for Ux, Initial residual = 0.03730583996, Final residual = 0.002263618684, No Iterations 1
smoothSolver:  Solving for Uy, Initial residual = 0.02243950997, Final residual = 0.001025791509, No Iterations 2
smoothSolver:  Solving for Uz, Initial residual = 0.02129458042, Final residual = 0.001083455191, No Iterations 2
GAMG:  Solving for p, Initial residual = 0.3546891651, Final residual = 0.001472495874, No Iterations 4
time step continuity errors : sum local = 0.0001861986106, global = -2.607371991e-06, cumulative = -0.0004388916595
ExecutionTime = 84.11 s  ClockTime = 89 s

Time = 38

smoothSolver:  Solving for Ux, Initial residual = 0.03456979706, Final residual = 0.002202320361, No Iterations 1
smoothSolver:  Solving for Uy, Initial residual = 0.02054463817, Final residual = 0.001011498928, No Iterations 2
smoothSolver:  Solving for Uz, Initial residual = 0.02054223015, Final residual = 0.001103867952, No Iterations 2
GAMG:  Solving for p, Initial residual = 0.3767045104, Final residual = 0.001825939026, No Iterations 4
time step continuity errors : sum local = 0.0002124891982, global = -6.893730151e-06, cumulative = -0.0004457853896
ExecutionTime = 86.13 s  ClockTime = 91 s

Time = 39

smoothSolver:  Solving for Ux, Initial residual = 0.03426729126, Final residual = 0.002103202834, No Iterations 1
smoothSolver:  Solving for Uy, Initial residual = 0.02017013288, Final residual = 0.001023994256, No Iterations 2
smoothSolver:  Solving for Uz, Initial residual = 0.01887092006, Final residual = 0.001114304325, No Iterations 2
GAMG:  Solving for p, Initial residual = 0.374003928, Final residual = 0.001816406992, No Iterations 4
time step continuity errors : sum local = 0.0002078876713, global = 7.432757235e-06, cumulative = -0.0004383526324
ExecutionTime = 88.07 s  ClockTime = 93 s

Time = 40

smoothSolver:  Solving for Ux, Initial residual = 0.03427970004, Final residual = 0.002090596247, No Iterations 1
smoothSolver:  Solving for Uy, Initial residual = 0.02173639537, Final residual = 0.00106093781, No Iterations 2
smoothSolver:  Solving for Uz, Initial residual = 0.01894923119, Final residual = 0.001126284722, No Iterations 2
GAMG:  Solving for p, Initial residual = 0.3372422109, Final residual = 0.003310698724, No Iterations 3
time step continuity errors : sum local = 0.0004119316695, global = -6.768148216e-06, cumulative = -0.0004451207806
ExecutionTime = 89.85 s  ClockTime = 95 s

Time = 41

smoothSolver:  Solving for Ux, Initial residual = 0.03232251586, Final residual = 0.002071698374, No Iterations 1
smoothSolver:  Solving for Uy, Initial residual = 0.02316833603, Final residual = 0.001109564796, No Iterations 2
smoothSolver:  Solving for Uz, Initial residual = 0.01915459749, Final residual = 0.001136328444, No Iterations 2
GAMG:  Solving for p, Initial residual = 0.3544354351, Final residual = 0.001246895326, No Iterations 4
time step continuity errors : sum local = 0.0001445087477, global = 1.532546399e-06, cumulative = -0.0004435882342
ExecutionTime = 91.84 s  ClockTime = 97 s

Time = 42

smoothSolver:  Solving for Ux, Initial residual = 0.03058141528, Final residual = 0.002088784394, No Iterations 1
smoothSolver:  Solving for Uy, Initial residual = 0.02306344377, Final residual = 0.001152575547, No Iterations 2
smoothSolver:  Solving for Uz, Initial residual = 0.01932439766, Final residual = 0.001159125217, No Iterations 2
GAMG:  Solving for p, Initial residual = 0.4038696997, Final residual = 0.003749757048, No Iterations 3
time step continuity errors : sum local = 0.0003761011569, global = -6.704984139e-06, cumulative = -0.0004502932184
ExecutionTime = 93.66 s  ClockTime = 99 s

Time = 43

smoothSolver:  Solving for Ux, Initial residual = 0.03022686356, Final residual = 0.002127404259, No Iterations 1
smoothSolver:  Solving for Uy, Initial residual = 0.02235322535, Final residual = 0.001188286981, No Iterations 2
smoothSolver:  Solving for Uz, Initial residual = 0.01936140636, Final residual = 0.001181778866, No Iterations 2
GAMG:  Solving for p, Initial residual = 0.3802353218, Final residual = 0.003337799356, No Iterations 3
time step continuity errors : sum local = 0.0003485189825, global = -1.114102348e-06, cumulative = -0.0004514073207
ExecutionTime = 95.59 s  ClockTime = 101 s

Time = 44

smoothSolver:  Solving for Ux, Initial residual = 0.02964035145, Final residual = 0.002142906292, No Iterations 1
smoothSolver:  Solving for Uy, Initial residual = 0.02185251844, Final residual = 0.001225707523, No Iterations 2
smoothSolver:  Solving for Uz, Initial residual = 0.0194210075, Final residual = 0.00119668969, No Iterations 2
GAMG:  Solving for p, Initial residual = 0.3875949111, Final residual = 0.003623955558, No Iterations 3
time step continuity errors : sum local = 0.0003623771006, global = -8.579237832e-06, cumulative = -0.0004599865585
ExecutionTime = 97.5 s  ClockTime = 103 s

Time = 45

smoothSolver:  Solving for Ux, Initial residual = 0.02938486678, Final residual = 0.002158927961, No Iterations 1
smoothSolver:  Solving for Uy, Initial residual = 0.02222561046, Final residual = 0.001283503147, No Iterations 2
smoothSolver:  Solving for Uz, Initial residual = 0.01935810563, Final residual = 0.00120363068, No Iterations 2
GAMG:  Solving for p, Initial residual = 0.373359379, Final residual = 0.002956338709, No Iterations 3
time step continuity errors : sum local = 0.0003023826218, global = 3.50713335e-06, cumulative = -0.0004564794252
ExecutionTime = 99.22 s  ClockTime = 105 s

Time = 46

smoothSolver:  Solving for Ux, Initial residual = 0.02899093978, Final residual = 0.002198071695, No Iterations 1
smoothSolver:  Solving for Uy, Initial residual = 0.02298230664, Final residual = 0.001342441547, No Iterations 2
smoothSolver:  Solving for Uz, Initial residual = 0.01913267001, Final residual = 0.001207985049, No Iterations 2
GAMG:  Solving for p, Initial residual = 0.3612306462, Final residual = 0.002801087969, No Iterations 3
time step continuity errors : sum local = 0.0002919565556, global = -3.974805904e-06, cumulative = -0.0004604542311
ExecutionTime = 100.92 s  ClockTime = 107 s

Time = 47

smoothSolver:  Solving for Ux, Initial residual = 0.02823769785, Final residual = 0.002230042374, No Iterations 1
smoothSolver:  Solving for Uy, Initial residual = 0.02335956911, Final residual = 0.001384264129, No Iterations 2
smoothSolver:  Solving for Uz, Initial residual = 0.01896451539, Final residual = 0.00120837924, No Iterations 2
GAMG:  Solving for p, Initial residual = 0.3625674952, Final residual = 0.002986588019, No Iterations 3
time step continuity errors : sum local = 0.000303302105, global = 1.966703446e-06, cumulative = -0.0004584875277
ExecutionTime = 102.63 s  ClockTime = 109 s

Time = 48

smoothSolver:  Solving for Ux, Initial residual = 0.02739538737, Final residual = 0.002261234927, No Iterations 1
smoothSolver:  Solving for Uy, Initial residual = 0.02315932876, Final residual = 0.001408462653, No Iterations 2
smoothSolver:  Solving for Uz, Initial residual = 0.01909011629, Final residual = 0.001208553778, No Iterations 2
GAMG:  Solving for p, Initial residual = 0.3794001989, Final residual = 0.0026421019, No Iterations 3
time step continuity errors : sum local = 0.0002536805585, global = -2.647060462e-06, cumulative = -0.0004611345881
ExecutionTime = 104.3 s  ClockTime = 110 s

Time = 49

smoothSolver:  Solving for Ux, Initial residual = 0.02681165134, Final residual = 0.002286747083, No Iterations 1
smoothSolver:  Solving for Uy, Initial residual = 0.02257438921, Final residual = 0.00141319929, No Iterations 2
smoothSolver:  Solving for Uz, Initial residual = 0.01916472918, Final residual = 0.001186222812, No Iterations 2
GAMG:  Solving for p, Initial residual = 0.3770130304, Final residual = 0.002437405634, No Iterations 3
time step continuity errors : sum local = 0.0002310995461, global = 9.065158724e-07, cumulative = -0.0004602280722
ExecutionTime = 106.02 s  ClockTime = 112 s

Time = 50

smoothSolver:  Solving for Ux, Initial residual = 0.02639767362, Final residual = 0.002287137205, No Iterations 1
smoothSolver:  Solving for Uy, Initial residual = 0.02205665716, Final residual = 0.001408195556, No Iterations 2
smoothSolver:  Solving for Uz, Initial residual = 0.01882344941, Final residual = 0.001151010926, No Iterations 2
GAMG:  Solving for p, Initial residual = 0.3707220934, Final residual = 0.002590628981, No Iterations 3
time step continuity errors : sum local = 0.0002422883517, global = 3.696029468e-06, cumulative = -0.0004565320428
ExecutionTime = 107.7 s  ClockTime = 114 s

Time = 51

smoothSolver:  Solving for Ux, Initial residual = 0.02609364403, Final residual = 0.002278814944, No Iterations 1
smoothSolver:  Solving for Uy, Initial residual = 0.0218125696, Final residual = 0.001390370699, No Iterations 2
smoothSolver:  Solving for Uz, Initial residual = 0.01826376245, Final residual = 0.001115657779, No Iterations 2
GAMG:  Solving for p, Initial residual = 0.3644339892, Final residual = 0.002458748724, No Iterations 3
time step continuity errors : sum local = 0.0002288247004, global = 1.001488344e-05, cumulative = -0.0004465171593
ExecutionTime = 109.52 s  ClockTime = 116 s

Time = 52

smoothSolver:  Solving for Ux, Initial residual = 0.02566141916, Final residual = 0.002259984025, No Iterations 1
smoothSolver:  Solving for Uy, Initial residual = 0.02140065297, Final residual = 0.001368155975, No Iterations 2
smoothSolver:  Solving for Uz, Initial residual = 0.01786164515, Final residual = 0.001084469825, No Iterations 2
GAMG:  Solving for p, Initial residual = 0.3521470981, Final residual = 0.002198515839, No Iterations 3
time step continuity errors : sum local = 0.0002067073346, global = 1.055723814e-05, cumulative = -0.0004359599212
ExecutionTime = 111.29 s  ClockTime = 118 s

Time = 53

smoothSolver:  Solving for Ux, Initial residual = 0.02518552118, Final residual = 0.002228115447, No Iterations 1
smoothSolver:  Solving for Uy, Initial residual = 0.02085647807, Final residual = 0.001332597849, No Iterations 2
smoothSolver:  Solving for Uz, Initial residual = 0.01766916118, Final residual = 0.00106052484, No Iterations 2
GAMG:  Solving for p, Initial residual = 0.3434321335, Final residual = 0.002097076265, No Iterations 3
time step continuity errors : sum local = 0.0001960619592, global = 3.999318026e-06, cumulative = -0.0004319606032
ExecutionTime = 113.03 s  ClockTime = 120 s

Time = 54

smoothSolver:  Solving for Ux, Initial residual = 0.02460280819, Final residual = 0.002176382655, No Iterations 1
smoothSolver:  Solving for Uy, Initial residual = 0.02031382497, Final residual = 0.001287017824, No Iterations 2
smoothSolver:  Solving for Uz, Initial residual = 0.01749557293, Final residual = 0.001042125118, No Iterations 2
GAMG:  Solving for p, Initial residual = 0.3418962818, Final residual = 0.002144359115, No Iterations 3
time step continuity errors : sum local = 0.0001975752329, global = 5.035175181e-06, cumulative = -0.000426925428
ExecutionTime = 114.96 s  ClockTime = 122 s

Time = 55

smoothSolver:  Solving for Ux, Initial residual = 0.0240533689, Final residual = 0.002117214187, No Iterations 1
smoothSolver:  Solving for Uy, Initial residual = 0.01980346483, Final residual = 0.001243125894, No Iterations 2
smoothSolver:  Solving for Uz, Initial residual = 0.01717965515, Final residual = 0.001028992445, No Iterations 2
GAMG:  Solving for p, Initial residual = 0.3410950699, Final residual = 0.002095760826, No Iterations 3
time step continuity errors : sum local = 0.000188999415, global = 3.347309617e-06, cumulative = -0.0004235781184
ExecutionTime = 116.82 s  ClockTime = 124 s

Time = 56

smoothSolver:  Solving for Ux, Initial residual = 0.02360771116, Final residual = 0.002065171487, No Iterations 1
smoothSolver:  Solving for Uy, Initial residual = 0.01928421781, Final residual = 0.001198229564, No Iterations 2
smoothSolver:  Solving for Uz, Initial residual = 0.01669109766, Final residual = 0.001008838496, No Iterations 2
GAMG:  Solving for p, Initial residual = 0.3398889344, Final residual = 0.002016156868, No Iterations 3
time step continuity errors : sum local = 0.0001789485045, global = 6.217544573e-06, cumulative = -0.0004173605738
ExecutionTime = 118.76 s  ClockTime = 126 s

Time = 57

smoothSolver:  Solving for Ux, Initial residual = 0.0231115965, Final residual = 0.002018155054, No Iterations 1
smoothSolver:  Solving for Uy, Initial residual = 0.01892412732, Final residual = 0.001160198341, No Iterations 2
smoothSolver:  Solving for Uz, Initial residual = 0.01617910612, Final residual = 0.0009806489096, No Iterations 2
GAMG:  Solving for p, Initial residual = 0.3368697591, Final residual = 0.002084192905, No Iterations 3
time step continuity errors : sum local = 0.0001839763092, global = 1.148202257e-06, cumulative = -0.0004162123715
ExecutionTime = 120.68 s  ClockTime = 128 s

Time = 58

smoothSolver:  Solving for Ux, Initial residual = 0.02263956395, Final residual = 0.001957645044, No Iterations 1
smoothSolver:  Solving for Uy, Initial residual = 0.01880886089, Final residual = 0.001126300744, No Iterations 2
smoothSolver:  Solving for Uz, Initial residual = 0.01585855815, Final residual = 0.0009578468525, No Iterations 2
GAMG:  Solving for p, Initial residual = 0.3293223137, Final residual = 0.00205765643, No Iterations 3
time step continuity errors : sum local = 0.0001830687531, global = -8.06796814e-07, cumulative = -0.0004170191684
ExecutionTime = 122.55 s  ClockTime = 130 s

Time = 59

smoothSolver:  Solving for Ux, Initial residual = 0.02215554269, Final residual = 0.001891468828, No Iterations 1
smoothSolver:  Solving for Uy, Initial residual = 0.01871190618, Final residual = 0.001097704111, No Iterations 2
smoothSolver:  Solving for Uz, Initial residual = 0.01571530324, Final residual = 0.0009395779731, No Iterations 2
GAMG:  Solving for p, Initial residual = 0.321249065, Final residual = 0.001948276879, No Iterations 3
time step continuity errors : sum local = 0.0001744119952, global = -1.221647459e-06, cumulative = -0.0004182408158
ExecutionTime = 124.38 s  ClockTime = 132 s

Time = 60

smoothSolver:  Solving for Ux, Initial residual = 0.02165504791, Final residual = 0.001828062292, No Iterations 1
smoothSolver:  Solving for Uy, Initial residual = 0.0185755648, Final residual = 0.001063020696, No Iterations 2
smoothSolver:  Solving for Uz, Initial residual = 0.01551620507, Final residual = 0.0009249790925, No Iterations 2
GAMG:  Solving for p, Initial residual = 0.3123940001, Final residual = 0.001824794844, No Iterations 3
time step continuity errors : sum local = 0.0001639416615, global = -3.900934566e-06, cumulative = -0.0004221417504
ExecutionTime = 126.08 s  ClockTime = 134 s

Time = 61

smoothSolver:  Solving for Ux, Initial residual = 0.02131392033, Final residual = 0.001780546059, No Iterations 1
smoothSolver:  Solving for Uy, Initial residual = 0.01840907276, Final residual = 0.001018741781, No Iterations 2
smoothSolver:  Solving for Uz, Initial residual = 0.01524310858, Final residual = 0.0009064816179, No Iterations 2
GAMG:  Solving for p, Initial residual = 0.3083276015, Final residual = 0.001735791699, No Iterations 3
time step continuity errors : sum local = 0.0001553842838, global = -5.366925757e-06, cumulative = -0.0004275086761
ExecutionTime = 127.79 s  ClockTime = 136 s

Time = 62

smoothSolver:  Solving for Ux, Initial residual = 0.02090875166, Final residual = 0.001754299267, No Iterations 1
smoothSolver:  Solving for Uy, Initial residual = 0.01801585685, Final residual = 0.0009688194494, No Iterations 2
smoothSolver:  Solving for Uz, Initial residual = 0.01491970222, Final residual = 0.0008823445193, No Iterations 2
GAMG:  Solving for p, Initial residual = 0.3081036858, Final residual = 0.001690959426, No Iterations 3
time step continuity errors : sum local = 0.0001503556359, global = -6.428440643e-06, cumulative = -0.0004339371168
ExecutionTime = 129.46 s  ClockTime = 138 s

Time = 63

smoothSolver:  Solving for Ux, Initial residual = 0.02041447022, Final residual = 0.001744317798, No Iterations 1
smoothSolver:  Solving for Uy, Initial residual = 0.01757248926, Final residual = 0.0009245226849, No Iterations 2
smoothSolver:  Solving for Uz, Initial residual = 0.01459525516, Final residual = 0.0008520461396, No Iterations 2
GAMG:  Solving for p, Initial residual = 0.3053313078, Final residual = 0.001593289751, No Iterations 3
time step continuity errors : sum local = 0.0001403053137, global = -6.649422479e-06, cumulative = -0.0004405865393
ExecutionTime = 131.19 s  ClockTime = 139 s

Time = 64

smoothSolver:  Solving for Ux, Initial residual = 0.02002907548, Final residual = 0.001740849304, No Iterations 1
smoothSolver:  Solving for Uy, Initial residual = 0.01716581662, Final residual = 0.000883438218, No Iterations 2
smoothSolver:  Solving for Uz, Initial residual = 0.01433835626, Final residual = 0.0008317974845, No Iterations 2
GAMG:  Solving for p, Initial residual = 0.3025068848, Final residual = 0.0015428959, No Iterations 3
time step continuity errors : sum local = 0.000135047086, global = -5.38347139e-06, cumulative = -0.0004459700106
ExecutionTime = 132.97 s  ClockTime = 141 s

Time = 65

smoothSolver:  Solving for Ux, Initial residual = 0.01970872612, Final residual = 0.001748961159, No Iterations 1
smoothSolver:  Solving for Uy, Initial residual = 0.01691284401, Final residual = 0.0008578868129, No Iterations 2
smoothSolver:  Solving for Uz, Initial residual = 0.01427096668, Final residual = 0.000826325995, No Iterations 2
GAMG:  Solving for p, Initial residual = 0.2975397129, Final residual = 0.001527823737, No Iterations 3
time step continuity errors : sum local = 0.0001333504161, global = -1.337019899e-06, cumulative = -0.0004473070305
ExecutionTime = 134.68 s  ClockTime = 143 s

Time = 66

smoothSolver:  Solving for Ux, Initial residual = 0.01936163914, Final residual = 0.001758670737, No Iterations 1
smoothSolver:  Solving for Uy, Initial residual = 0.0166865788, Final residual = 0.0008442253894, No Iterations 2
smoothSolver:  Solving for Uz, Initial residual = 0.01421257875, Final residual = 0.000828183036, No Iterations 2
GAMG:  Solving for p, Initial residual = 0.2903773921, Final residual = 0.001559701531, No Iterations 3
time step continuity errors : sum local = 0.000136322533, global = 2.478119115e-06, cumulative = -0.0004448289114
ExecutionTime = 136.41 s  ClockTime = 145 s

Time = 67

smoothSolver:  Solving for Ux, Initial residual = 0.01912421402, Final residual = 0.001774906349, No Iterations 1
smoothSolver:  Solving for Uy, Initial residual = 0.01641901521, Final residual = 0.0008322784977, No Iterations 2
smoothSolver:  Solving for Uz, Initial residual = 0.01408182611, Final residual = 0.0008290405679, No Iterations 2
GAMG:  Solving for p, Initial residual = 0.2835072168, Final residual = 0.001489800642, No Iterations 3
time step continuity errors : sum local = 0.0001298513807, global = 2.827642585e-06, cumulative = -0.0004420012688
ExecutionTime = 138.2 s  ClockTime = 147 s

Time = 68

smoothSolver:  Solving for Ux, Initial residual = 0.01890481964, Final residual = 0.001787511026, No Iterations 1
smoothSolver:  Solving for Uy, Initial residual = 0.01610306199, Final residual = 0.0008223582891, No Iterations 2
smoothSolver:  Solving for Uz, Initial residual = 0.01396977721, Final residual = 0.0008258928504, No Iterations 2
GAMG:  Solving for p, Initial residual = 0.2792786696, Final residual = 0.001416799217, No Iterations 3
time step continuity errors : sum local = 0.0001231895586, global = 1.141844964e-06, cumulative = -0.0004408594239
ExecutionTime = 140.03 s  ClockTime = 149 s

Time = 69

smoothSolver:  Solving for Ux, Initial residual = 0.01858637777, Final residual = 0.001799969798, No Iterations 1
smoothSolver:  Solving for Uy, Initial residual = 0.01579459365, Final residual = 0.000818528731, No Iterations 2
smoothSolver:  Solving for Uz, Initial residual = 0.01391448905, Final residual = 0.0008228741044, No Iterations 2
GAMG:  Solving for p, Initial residual = 0.2751050784, Final residual = 0.001458213914, No Iterations 3
time step continuity errors : sum local = 0.000125796054, global = -2.248513168e-06, cumulative = -0.000443107937
ExecutionTime = 141.9 s  ClockTime = 151 s

Time = 70

smoothSolver:  Solving for Ux, Initial residual = 0.01823583334, Final residual = 0.001794926624, No Iterations 1
smoothSolver:  Solving for Uy, Initial residual = 0.01541762927, Final residual = 0.0008183731377, No Iterations 2
smoothSolver:  Solving for Uz, Initial residual = 0.01385666119, Final residual = 0.0008197639548, No Iterations 2
GAMG:  Solving for p, Initial residual = 0.2726210753, Final residual = 0.001542690749, No Iterations 3
time step continuity errors : sum local = 0.0001320262794, global = -4.236209846e-06, cumulative = -0.0004473441469
ExecutionTime = 143.51 s  ClockTime = 153 s

Time = 71

smoothSolver:  Solving for Ux, Initial residual = 0.01791040882, Final residual = 0.001788289831, No Iterations 1
smoothSolver:  Solving for Uy, Initial residual = 0.01504140445, Final residual = 0.0008107291831, No Iterations 2
smoothSolver:  Solving for Uz, Initial residual = 0.0138206108, Final residual = 0.0008180251338, No Iterations 2
GAMG:  Solving for p, Initial residual = 0.2701441646, Final residual = 0.001535321556, No Iterations 3
time step continuity errors : sum local = 0.000130154339, global = -3.107018159e-06, cumulative = -0.0004504511651
ExecutionTime = 145.2 s  ClockTime = 155 s

Time = 72

smoothSolver:  Solving for Ux, Initial residual = 0.01756375164, Final residual = 0.0005284117171, No Iterations 2
smoothSolver:  Solving for Uy, Initial residual = 0.01480913363, Final residual = 0.0008005614161, No Iterations 2
smoothSolver:  Solving for Uz, Initial residual = 0.01380567323, Final residual = 0.0008169253248, No Iterations 2
GAMG:  Solving for p, Initial residual = 0.2698053041, Final residual = 0.001535115022, No Iterations 3
time step continuity errors : sum local = 0.0001291401304, global = -8.616983547e-07, cumulative = -0.0004513128634
ExecutionTime = 147 s  ClockTime = 157 s

Time = 73

smoothSolver:  Solving for Ux, Initial residual = 0.01700139311, Final residual = 0.001672017923, No Iterations 1
smoothSolver:  Solving for Uy, Initial residual = 0.0147833797, Final residual = 0.0007828329942, No Iterations 2
smoothSolver:  Solving for Uz, Initial residual = 0.01391323117, Final residual = 0.0008210602645, No Iterations 2
GAMG:  Solving for p, Initial residual = 0.2634792699, Final residual = 0.001542257814, No Iterations 3
time step continuity errors : sum local = 0.0001290307727, global = -3.177517451e-06, cumulative = -0.0004544903809
ExecutionTime = 148.75 s  ClockTime = 158 s

Time = 74

smoothSolver:  Solving for Ux, Initial residual = 0.01680100172, Final residual = 0.0004894976727, No Iterations 2
smoothSolver:  Solving for Uy, Initial residual = 0.01450783641, Final residual = 0.0007580296273, No Iterations 2
smoothSolver:  Solving for Uz, Initial residual = 0.01381837119, Final residual = 0.0008179641048, No Iterations 2
GAMG:  Solving for p, Initial residual = 0.2603232844, Final residual = 0.001592463139, No Iterations 3
time step continuity errors : sum local = 0.0001326818129, global = -5.023075584e-07, cumulative = -0.0004549926884
ExecutionTime = 150.56 s  ClockTime = 160 s

Time = 75

smoothSolver:  Solving for Ux, Initial residual = 0.01636631436, Final residual = 0.00160805152, No Iterations 1
smoothSolver:  Solving for Uy, Initial residual = 0.01436903157, Final residual = 0.0007479726154, No Iterations 2
smoothSolver:  Solving for Uz, Initial residual = 0.01380728391, Final residual = 0.0008188196704, No Iterations 2
GAMG:  Solving for p, Initial residual = 0.2555670794, Final residual = 0.001665302762, No Iterations 3
time step continuity errors : sum local = 0.0001377855159, global = -1.272624458e-06, cumulative = -0.0004562653129
ExecutionTime = 152.34 s  ClockTime = 162 s

Time = 76

smoothSolver:  Solving for Ux, Initial residual = 0.01631261188, Final residual = 0.0004720347793, No Iterations 2
smoothSolver:  Solving for Uy, Initial residual = 0.0141728627, Final residual = 0.0007426441263, No Iterations 2
smoothSolver:  Solving for Uz, Initial residual = 0.01369841034, Final residual = 0.0008078289629, No Iterations 2
GAMG:  Solving for p, Initial residual = 0.2558038298, Final residual = 0.001765079715, No Iterations 3
time step continuity errors : sum local = 0.0001442432225, global = 9.178905901e-08, cumulative = -0.0004561735238
ExecutionTime = 154.05 s  ClockTime = 164 s

Time = 77

smoothSolver:  Solving for Ux, Initial residual = 0.01585720656, Final residual = 0.0004536256142, No Iterations 2
smoothSolver:  Solving for Uy, Initial residual = 0.01418902758, Final residual = 0.0007479247579, No Iterations 2
smoothSolver:  Solving for Uz, Initial residual = 0.01387294431, Final residual = 0.0008138583599, No Iterations 2
GAMG:  Solving for p, Initial residual = 0.2541771093, Final residual = 0.001751861414, No Iterations 3
time step continuity errors : sum local = 0.000141118989, global = 4.910238064e-07, cumulative = -0.0004556825
ExecutionTime = 155.64 s  ClockTime = 166 s

Time = 78

smoothSolver:  Solving for Ux, Initial residual = 0.01549497311, Final residual = 0.00154871184, No Iterations 1
smoothSolver:  Solving for Uy, Initial residual = 0.01421195403, Final residual = 0.0007530709206, No Iterations 2
smoothSolver:  Solving for Uz, Initial residual = 0.0141065369, Final residual = 0.0008250394067, No Iterations 2
GAMG:  Solving for p, Initial residual = 0.2514736713, Final residual = 0.001656759912, No Iterations 3
time step continuity errors : sum local = 0.0001312162778, global = -2.92281229e-06, cumulative = -0.0004586053123
ExecutionTime = 157.2 s  ClockTime = 167 s

Time = 79

smoothSolver:  Solving for Ux, Initial residual = 0.0154358037, Final residual = 0.0004498218352, No Iterations 2
smoothSolver:  Solving for Uy, Initial residual = 0.01403314224, Final residual = 0.000746531126, No Iterations 2
smoothSolver:  Solving for Uz, Initial residual = 0.0140605061, Final residual = 0.0008188456877, No Iterations 2
GAMG:  Solving for p, Initial residual = 0.2517746776, Final residual = 0.001635271734, No Iterations 3
time step continuity errors : sum local = 0.0001273805866, global = -1.411641207e-06, cumulative = -0.0004600169535
ExecutionTime = 158.82 s  ClockTime = 169 s

Time = 80

smoothSolver:  Solving for Ux, Initial residual = 0.01508195612, Final residual = 0.0004376380861, No Iterations 2
smoothSolver:  Solving for Uy, Initial residual = 0.01395212737, Final residual = 0.0007433720905, No Iterations 2
smoothSolver:  Solving for Uz, Initial residual = 0.01405915291, Final residual = 0.0008144891834, No Iterations 2
GAMG:  Solving for p, Initial residual = 0.2500868126, Final residual = 0.001623004304, No Iterations 3
time step continuity errors : sum local = 0.0001251206925, global = 5.346857366e-07, cumulative = -0.0004594822678
ExecutionTime = 160.46 s  ClockTime = 171 s

Time = 81

smoothSolver:  Solving for Ux, Initial residual = 0.01475580066, Final residual = 0.0004225633731, No Iterations 2
smoothSolver:  Solving for Uy, Initial residual = 0.01381960975, Final residual = 0.0007482618816, No Iterations 2
smoothSolver:  Solving for Uz, Initial residual = 0.01403594705, Final residual = 0.0008144101548, No Iterations 2
GAMG:  Solving for p, Initial residual = 0.24680781, Final residual = 0.00157871621, No Iterations 3
time step continuity errors : sum local = 0.0001210219162, global = 3.021623887e-06, cumulative = -0.0004564606439
ExecutionTime = 162.1 s  ClockTime = 173 s

Time = 82

smoothSolver:  Solving for Ux, Initial residual = 0.0143655285, Final residual = 0.0004190845402, No Iterations 2
smoothSolver:  Solving for Uy, Initial residual = 0.01366510129, Final residual = 0.0007590686978, No Iterations 2
smoothSolver:  Solving for Uz, Initial residual = 0.01387087252, Final residual = 0.0008140526534, No Iterations 2
GAMG:  Solving for p, Initial residual = 0.2440926481, Final residual = 0.00157945363, No Iterations 3
time step continuity errors : sum local = 0.0001209853536, global = 6.05827272e-06, cumulative = -0.0004504023712
ExecutionTime = 163.81 s  ClockTime = 175 s

Time = 83

smoothSolver:  Solving for Ux, Initial residual = 0.01407052542, Final residual = 0.000416672765, No Iterations 2
smoothSolver:  Solving for Uy, Initial residual = 0.01351019573, Final residual = 0.0007638081701, No Iterations 2
smoothSolver:  Solving for Uz, Initial residual = 0.0136244476, Final residual = 0.0008072604358, No Iterations 2
GAMG:  Solving for p, Initial residual = 0.2408731607, Final residual = 0.001576696425, No Iterations 3
time step continuity errors : sum local = 0.0001204108483, global = 6.766699388e-06, cumulative = -0.0004436356718
ExecutionTime = 166 s  ClockTime = 177 s

Time = 84

smoothSolver:  Solving for Ux, Initial residual = 0.01387984728, Final residual = 0.0004119893257, No Iterations 2
smoothSolver:  Solving for Uy, Initial residual = 0.01335435853, Final residual = 0.0007692195029, No Iterations 2
smoothSolver:  Solving for Uz, Initial residual = 0.01342347047, Final residual = 0.0008007779381, No Iterations 2
GAMG:  Solving for p, Initial residual = 0.2376505123, Final residual = 0.0016190695, No Iterations 3
time step continuity errors : sum local = 0.0001241235928, global = 4.707665267e-06, cumulative = -0.0004389280065
ExecutionTime = 168.18 s  ClockTime = 179 s

Time = 85

smoothSolver:  Solving for Ux, Initial residual = 0.01371426864, Final residual = 0.0004156753994, No Iterations 2
smoothSolver:  Solving for Uy, Initial residual = 0.01319050168, Final residual = 0.0007769709487, No Iterations 2
smoothSolver:  Solving for Uz, Initial residual = 0.01329805758, Final residual = 0.00079293133, No Iterations 2
GAMG:  Solving for p, Initial residual = 0.2340235874, Final residual = 0.001592749745, No Iterations 3
time step continuity errors : sum local = 0.0001223455225, global = 5.279280985e-06, cumulative = -0.0004336487255
ExecutionTime = 170.25 s  ClockTime = 181 s

Time = 86

smoothSolver:  Solving for Ux, Initial residual = 0.01352622791, Final residual = 0.0004174263754, No Iterations 2
smoothSolver:  Solving for Uy, Initial residual = 0.01306485043, Final residual = 0.0007822188135, No Iterations 2
smoothSolver:  Solving for Uz, Initial residual = 0.01317120313, Final residual = 0.0007883013492, No Iterations 2
GAMG:  Solving for p, Initial residual = 0.2338624202, Final residual = 0.001609494305, No Iterations 3
time step continuity errors : sum local = 0.0001241536414, global = 5.98347189e-06, cumulative = -0.0004276652536
ExecutionTime = 172.5 s  ClockTime = 184 s

Time = 87

smoothSolver:  Solving for Ux, Initial residual = 0.01338855529, Final residual = 0.0004220186842, No Iterations 2
smoothSolver:  Solving for Uy, Initial residual = 0.01302479939, Final residual = 0.0007882277981, No Iterations 2
smoothSolver:  Solving for Uz, Initial residual = 0.01310184549, Final residual = 0.0007770686879, No Iterations 2
GAMG:  Solving for p, Initial residual = 0.2298379056, Final residual = 0.001768412649, No Iterations 3
time step continuity errors : sum local = 0.000136391524, global = 5.786437532e-06, cumulative = -0.0004218788161
ExecutionTime = 174.61 s  ClockTime = 186 s

Time = 88

smoothSolver:  Solving for Ux, Initial residual = 0.01326365883, Final residual = 0.0004202555362, No Iterations 2
smoothSolver:  Solving for Uy, Initial residual = 0.0129876683, Final residual = 0.0007906376593, No Iterations 2
smoothSolver:  Solving for Uz, Initial residual = 0.01307734879, Final residual = 0.0007627845479, No Iterations 2
GAMG:  Solving for p, Initial residual = 0.2278352192, Final residual = 0.001822595466, No Iterations 3
time step continuity errors : sum local = 0.0001415423252, global = 3.359259089e-06, cumulative = -0.000418519557
ExecutionTime = 176.43 s  ClockTime = 188 s

Time = 89

smoothSolver:  Solving for Ux, Initial residual = 0.01315843389, Final residual = 0.0004210902361, No Iterations 2
smoothSolver:  Solving for Uy, Initial residual = 0.01294598765, Final residual = 0.0007866743454, No Iterations 2
smoothSolver:  Solving for Uz, Initial residual = 0.01315752535, Final residual = 0.0007484877412, No Iterations 2
GAMG:  Solving for p, Initial residual = 0.2233426023, Final residual = 0.001615130438, No Iterations 3
time step continuity errors : sum local = 0.0001265650447, global = 1.269602979e-06, cumulative = -0.000417249954
ExecutionTime = 178.46 s  ClockTime = 190 s

Time = 90

smoothSolver:  Solving for Ux, Initial residual = 0.012972468, Final residual = 0.0004193826145, No Iterations 2
smoothSolver:  Solving for Uy, Initial residual = 0.0128486376, Final residual = 0.0007754086214, No Iterations 2
smoothSolver:  Solving for Uz, Initial residual = 0.01311557414, Final residual = 0.0007394556703, No Iterations 2
GAMG:  Solving for p, Initial residual = 0.2223270611, Final residual = 0.001419682717, No Iterations 3
time step continuity errors : sum local = 0.0001127477618, global = 3.432283924e-06, cumulative = -0.0004138176701
ExecutionTime = 180.94 s  ClockTime = 193 s

Time = 91

smoothSolver:  Solving for Ux, Initial residual = 0.01276874296, Final residual = 0.0004201595156, No Iterations 2
smoothSolver:  Solving for Uy, Initial residual = 0.01266960299, Final residual = 0.0007661114122, No Iterations 2
smoothSolver:  Solving for Uz, Initial residual = 0.01298976099, Final residual = 0.0007462189696, No Iterations 2
GAMG:  Solving for p, Initial residual = 0.2189961629, Final residual = 0.001443698105, No Iterations 3
time step continuity errors : sum local = 0.0001151409586, global = 2.161867621e-06, cumulative = -0.0004116558025
ExecutionTime = 183.06 s  ClockTime = 195 s

Time = 92

smoothSolver:  Solving for Ux, Initial residual = 0.01255068045, Final residual = 0.0004209638222, No Iterations 2
smoothSolver:  Solving for Uy, Initial residual = 0.01243748348, Final residual = 0.0007650312805, No Iterations 2
smoothSolver:  Solving for Uz, Initial residual = 0.01283147012, Final residual = 0.0007605315715, No Iterations 2
GAMG:  Solving for p, Initial residual = 0.2190108574, Final residual = 0.00150564927, No Iterations 3
time step continuity errors : sum local = 0.0001204391787, global = -3.986538881e-07, cumulative = -0.0004120544564
ExecutionTime = 184.94 s  ClockTime = 197 s

Time = 93

smoothSolver:  Solving for Ux, Initial residual = 0.01229758742, Final residual = 0.000421015346, No Iterations 2
smoothSolver:  Solving for Uy, Initial residual = 0.01215963932, Final residual = 0.0007708926268, No Iterations 2
smoothSolver:  Solving for Uz, Initial residual = 0.01260718539, Final residual = 0.000775234042, No Iterations 2
GAMG:  Solving for p, Initial residual = 0.2185713127, Final residual = 0.00155351487, No Iterations 3
time step continuity errors : sum local = 0.0001244592631, global = -2.473285448e-06, cumulative = -0.0004145277418
ExecutionTime = 186.78 s  ClockTime = 199 s

Time = 94

smoothSolver:  Solving for Ux, Initial residual = 0.01205331698, Final residual = 0.0004238183843, No Iterations 2
smoothSolver:  Solving for Uy, Initial residual = 0.01188758167, Final residual = 0.0007811790924, No Iterations 2
smoothSolver:  Solving for Uz, Initial residual = 0.01238483405, Final residual = 0.0008009051722, No Iterations 2
GAMG:  Solving for p, Initial residual = 0.2179383148, Final residual = 0.001491520864, No Iterations 3
time step continuity errors : sum local = 0.0001191434274, global = -3.103437385e-06, cumulative = -0.0004176311792
ExecutionTime = 188.56 s  ClockTime = 201 s

Time = 95

smoothSolver:  Solving for Ux, Initial residual = 0.01187110656, Final residual = 0.0004292867532, No Iterations 2
smoothSolver:  Solving for Uy, Initial residual = 0.01173235663, Final residual = 0.0007940326377, No Iterations 2
smoothSolver:  Solving for Uz, Initial residual = 0.01228500924, Final residual = 0.000837918314, No Iterations 2
GAMG:  Solving for p, Initial residual = 0.2164376381, Final residual = 0.001458384445, No Iterations 3
time step continuity errors : sum local = 0.0001158739221, global = -4.13303867e-06, cumulative = -0.0004217642179
ExecutionTime = 190.4 s  ClockTime = 203 s

Time = 96

smoothSolver:  Solving for Ux, Initial residual = 0.0117375301, Final residual = 0.0004344479501, No Iterations 2
smoothSolver:  Solving for Uy, Initial residual = 0.01175703237, Final residual = 0.0008128418053, No Iterations 2
smoothSolver:  Solving for Uz, Initial residual = 0.01229665008, Final residual = 0.0008841421248, No Iterations 2
GAMG:  Solving for p, Initial residual = 0.215860024, Final residual = 0.001483063663, No Iterations 3
time step continuity errors : sum local = 0.0001174944386, global = -4.292778071e-06, cumulative = -0.000426056996
ExecutionTime = 192.23 s  ClockTime = 205 s

Time = 97

smoothSolver:  Solving for Ux, Initial residual = 0.01165514534, Final residual = 0.0004395433541, No Iterations 2
smoothSolver:  Solving for Uy, Initial residual = 0.01193647164, Final residual = 0.0008430430845, No Iterations 2
smoothSolver:  Solving for Uz, Initial residual = 0.01247620558, Final residual = 0.0009276819443, No Iterations 2
GAMG:  Solving for p, Initial residual = 0.2142360367, Final residual = 0.001536452467, No Iterations 3
time step continuity errors : sum local = 0.0001209641869, global = -5.224996327e-06, cumulative = -0.0004312819923
ExecutionTime = 194.06 s  ClockTime = 207 s

Time = 98

smoothSolver:  Solving for Ux, Initial residual = 0.01158058404, Final residual = 0.0004440896309, No Iterations 2
smoothSolver:  Solving for Uy, Initial residual = 0.01219937819, Final residual = 0.0008779046974, No Iterations 2
smoothSolver:  Solving for Uz, Initial residual = 0.01269223924, Final residual = 0.0009611611194, No Iterations 2
GAMG:  Solving for p, Initial residual = 0.2147115967, Final residual = 0.001585227458, No Iterations 3
time step continuity errors : sum local = 0.0001243982266, global = -6.048972543e-06, cumulative = -0.0004373309648
ExecutionTime = 195.91 s  ClockTime = 208 s

Time = 99

smoothSolver:  Solving for Ux, Initial residual = 0.01151355473, Final residual = 0.0004478559719, No Iterations 2
smoothSolver:  Solving for Uy, Initial residual = 0.01249958342, Final residual = 0.0009124387183, No Iterations 2
smoothSolver:  Solving for Uz, Initial residual = 0.01284051184, Final residual = 0.0009850446547, No Iterations 2
GAMG:  Solving for p, Initial residual = 0.2159713034, Final residual = 0.001654301745, No Iterations 3
time step continuity errors : sum local = 0.0001294787738, global = -6.228850173e-06, cumulative = -0.000443559815
ExecutionTime = 197.78 s  ClockTime = 210 s

Time = 100

smoothSolver:  Solving for Ux, Initial residual = 0.0114545994, Final residual = 0.0004529839463, No Iterations 2
smoothSolver:  Solving for Uy, Initial residual = 0.01282708937, Final residual = 0.0009444156944, No Iterations 2
smoothSolver:  Solving for Uz, Initial residual = 0.01302439444, Final residual = 0.001005528709, No Iterations 2
GAMG:  Solving for p, Initial residual = 0.2161350068, Final residual = 0.001690566582, No Iterations 3
time step continuity errors : sum local = 0.0001316103076, global = -4.697031099e-06, cumulative = -0.0004482568461
ExecutionTime = 202.21 s  ClockTime = 215 s

Time = 101

smoothSolver:  Solving for Ux, Initial residual = 0.01138209052, Final residual = 0.0004519991272, No Iterations 2
smoothSolver:  Solving for Uy, Initial residual = 0.01314942557, Final residual = 0.000972235526, No Iterations 2
smoothSolver:  Solving for Uz, Initial residual = 0.01326486229, Final residual = 0.001021784206, No Iterations 2
GAMG:  Solving for p, Initial residual = 0.2145733144, Final residual = 0.001639126196, No Iterations 3
time step continuity errors : sum local = 0.0001267650467, global = -1.66064147e-06, cumulative = -0.0004499174876
ExecutionTime = 203.99 s  ClockTime = 217 s

Time = 102

smoothSolver:  Solving for Ux, Initial residual = 0.01131964264, Final residual = 0.0004490763495, No Iterations 2
smoothSolver:  Solving for Uy, Initial residual = 0.01343852089, Final residual = 0.0009973179046, No Iterations 2
smoothSolver:  Solving for Uz, Initial residual = 0.01350748271, Final residual = 0.00102795696, No Iterations 2
GAMG:  Solving for p, Initial residual = 0.2136854046, Final residual = 0.001576383998, No Iterations 3
time step continuity errors : sum local = 0.0001213645695, global = 7.830012181e-07, cumulative = -0.0004491344863
ExecutionTime = 205.77 s  ClockTime = 219 s

Time = 103

smoothSolver:  Solving for Ux, Initial residual = 0.01123808962, Final residual = 0.0004454201278, No Iterations 2
smoothSolver:  Solving for Uy, Initial residual = 0.01369264661, Final residual = 0.001018269875, No Iterations 2
smoothSolver:  Solving for Uz, Initial residual = 0.01363682155, Final residual = 0.001022136918, No Iterations 2
GAMG:  Solving for p, Initial residual = 0.2122866156, Final residual = 0.001552263001, No Iterations 3
time step continuity errors : sum local = 0.0001191731178, global = 1.827396846e-06, cumulative = -0.0004473070895
ExecutionTime = 207.4 s  ClockTime = 221 s

Time = 104

smoothSolver:  Solving for Ux, Initial residual = 0.01112821125, Final residual = 0.0004377235723, No Iterations 2
smoothSolver:  Solving for Uy, Initial residual = 0.01393064232, Final residual = 0.001022431977, No Iterations 2
smoothSolver:  Solving for Uz, Initial residual = 0.01366400968, Final residual = 0.00100890806, No Iterations 2
GAMG:  Solving for p, Initial residual = 0.2111690337, Final residual = 0.001574430684, No Iterations 3
time step continuity errors : sum local = 0.0001209551724, global = -3.23058421e-09, cumulative = -0.0004473103201
ExecutionTime = 209.19 s  ClockTime = 223 s

Time = 105

smoothSolver:  Solving for Ux, Initial residual = 0.01106005099, Final residual = 0.000431555466, No Iterations 2
smoothSolver:  Solving for Uy, Initial residual = 0.01417083235, Final residual = 0.001018896101, No Iterations 2
smoothSolver:  Solving for Uz, Initial residual = 0.01367297553, Final residual = 0.0009901305586, No Iterations 2
GAMG:  Solving for p, Initial residual = 0.2074446588, Final residual = 0.001621883533, No Iterations 3
time step continuity errors : sum local = 0.0001244785173, global = -4.585942272e-06, cumulative = -0.0004518962624
ExecutionTime = 211.34 s  ClockTime = 225 s

Time = 106

smoothSolver:  Solving for Ux, Initial residual = 0.01096135856, Final residual = 0.000426173442, No Iterations 2
smoothSolver:  Solving for Uy, Initial residual = 0.01437773627, Final residual = 0.001012995889, No Iterations 2
smoothSolver:  Solving for Uz, Initial residual = 0.01368281287, Final residual = 0.0009651645859, No Iterations 2
GAMG:  Solving for p, Initial residual = 0.205009351, Final residual = 0.001591186543, No Iterations 3
time step continuity errors : sum local = 0.0001220994078, global = -8.125364162e-06, cumulative = -0.0004600216265
ExecutionTime = 213.41 s  ClockTime = 227 s

Time = 107

smoothSolver:  Solving for Ux, Initial residual = 0.01084006889, Final residual = 0.0004252985119, No Iterations 2
smoothSolver:  Solving for Uy, Initial residual = 0.01453806513, Final residual = 0.00101244708, No Iterations 2
smoothSolver:  Solving for Uz, Initial residual = 0.01365687743, Final residual = 0.0009315533222, No Iterations 2
GAMG:  Solving for p, Initial residual = 0.204905498, Final residual = 0.001538501131, No Iterations 3
time step continuity errors : sum local = 0.0001173053517, global = -8.119877334e-06, cumulative = -0.0004681415039
ExecutionTime = 215.49 s  ClockTime = 229 s

Time = 108

smoothSolver:  Solving for Ux, Initial residual = 0.01070547303, Final residual = 0.0004274949082, No Iterations 2
smoothSolver:  Solving for Uy, Initial residual = 0.01465802551, Final residual = 0.001016547855, No Iterations 2
smoothSolver:  Solving for Uz, Initial residual = 0.01366848076, Final residual = 0.0008972118252, No Iterations 2
GAMG:  Solving for p, Initial residual = 0.2051586021, Final residual = 0.001480654168, No Iterations 3
time step continuity errors : sum local = 0.0001120648169, global = -6.698864306e-06, cumulative = -0.0004748403682
ExecutionTime = 217.41 s  ClockTime = 232 s

Time = 109

smoothSolver:  Solving for Ux, Initial residual = 0.01054841656, Final residual = 0.0004279807542, No Iterations 2
smoothSolver:  Solving for Uy, Initial residual = 0.0146938667, Final residual = 0.001015811805, No Iterations 2
smoothSolver:  Solving for Uz, Initial residual = 0.01367711818, Final residual = 0.0008743209778, No Iterations 2
GAMG:  Solving for p, Initial residual = 0.205819221, Final residual = 0.001490381697, No Iterations 3
time step continuity errors : sum local = 0.0001113212504, global = -5.845698014e-06, cumulative = -0.0004806860662
ExecutionTime = 219.21 s  ClockTime = 234 s

Time = 110

smoothSolver:  Solving for Ux, Initial residual = 0.01036737675, Final residual = 0.0004239237979, No Iterations 2
smoothSolver:  Solving for Uy, Initial residual = 0.01464820519, Final residual = 0.001012945344, No Iterations 2
smoothSolver:  Solving for Uz, Initial residual = 0.01361924976, Final residual = 0.0008599797755, No Iterations 2
GAMG:  Solving for p, Initial residual = 0.2062104451, Final residual = 0.001507027609, No Iterations 3
time step continuity errors : sum local = 0.0001114604564, global = -2.616210729e-06, cumulative = -0.0004833022769
ExecutionTime = 221.02 s  ClockTime = 236 s

Time = 111

smoothSolver:  Solving for Ux, Initial residual = 0.01022680898, Final residual = 0.0004202388944, No Iterations 2
smoothSolver:  Solving for Uy, Initial residual = 0.01458133135, Final residual = 0.00102276647, No Iterations 2
smoothSolver:  Solving for Uz, Initial residual = 0.01341428002, Final residual = 0.0008488794317, No Iterations 2
GAMG:  Solving for p, Initial residual = 0.2037332723, Final residual = 0.001497113185, No Iterations 3
time step continuity errors : sum local = 0.0001097783904, global = 1.877197094e-06, cumulative = -0.0004814250798
ExecutionTime = 222.97 s  ClockTime = 238 s

Time = 112

smoothSolver:  Solving for Ux, Initial residual = 0.01009307495, Final residual = 0.0004183226007, No Iterations 2
smoothSolver:  Solving for Uy, Initial residual = 0.01453595139, Final residual = 0.001034705178, No Iterations 2
smoothSolver:  Solving for Uz, Initial residual = 0.01314560052, Final residual = 0.0008433424266, No Iterations 2
GAMG:  Solving for p, Initial residual = 0.2027470848, Final residual = 0.001518697908, No Iterations 3
time step continuity errors : sum local = 0.0001112443756, global = 5.158162544e-06, cumulative = -0.0004762669173
ExecutionTime = 224.91 s  ClockTime = 240 s

Time = 113

smoothSolver:  Solving for Ux, Initial residual = 0.009930145448, Final residual = 0.0004146812743, No Iterations 2
smoothSolver:  Solving for Uy, Initial residual = 0.01448684527, Final residual = 0.001048045229, No Iterations 2
smoothSolver:  Solving for Uz, Initial residual = 0.01296837239, Final residual = 0.0008467124214, No Iterations 2
GAMG:  Solving for p, Initial residual = 0.197832912, Final residual = 0.001554882329, No Iterations 3
time step continuity errors : sum local = 0.0001131579067, global = 5.743413468e-06, cumulative = -0.0004705235038
ExecutionTime = 226.93 s  ClockTime = 242 s

Time = 114

smoothSolver:  Solving for Ux, Initial residual = 0.009730606561, Final residual = 0.0004060047574, No Iterations 2
smoothSolver:  Solving for Uy, Initial residual = 0.01443048495, Final residual = 0.001044104665, No Iterations 2
smoothSolver:  Solving for Uz, Initial residual = 0.01289204077, Final residual = 0.0008620476909, No Iterations 2
GAMG:  Solving for p, Initial residual = 0.1941525823, Final residual = 0.001548386589, No Iterations 3
time step continuity errors : sum local = 0.000112422869, global = 3.698518594e-06, cumulative = -0.0004668249852
ExecutionTime = 228.99 s  ClockTime = 244 s

Time = 115

smoothSolver:  Solving for Ux, Initial residual = 0.00959139129, Final residual = 0.0004032153846, No Iterations 2
smoothSolver:  Solving for Uy, Initial residual = 0.01436700408, Final residual = 0.00103646978, No Iterations 2
smoothSolver:  Solving for Uz, Initial residual = 0.01284729625, Final residual = 0.0008814797874, No Iterations 2
GAMG:  Solving for p, Initial residual = 0.1913734204, Final residual = 0.001498314326, No Iterations 3
time step continuity errors : sum local = 0.0001083215178, global = 2.211338596e-07, cumulative = -0.0004666038513
ExecutionTime = 230.98 s  ClockTime = 246 s

Time = 116

smoothSolver:  Solving for Ux, Initial residual = 0.009481398573, Final residual = 0.0004078878895, No Iterations 2
smoothSolver:  Solving for Uy, Initial residual = 0.01429440225, Final residual = 0.001044432131, No Iterations 2
smoothSolver:  Solving for Uz, Initial residual = 0.01276543583, Final residual = 0.0008950630231, No Iterations 2
GAMG:  Solving for p, Initial residual = 0.1870566589, Final residual = 0.001439390444, No Iterations 3
time step continuity errors : sum local = 0.0001033105487, global = -2.163199718e-06, cumulative = -0.0004687670511
ExecutionTime = 232.8 s  ClockTime = 248 s

Time = 117

smoothSolver:  Solving for Ux, Initial residual = 0.009367916572, Final residual = 0.0004075764331, No Iterations 2
smoothSolver:  Solving for Uy, Initial residual = 0.01418767313, Final residual = 0.001055287656, No Iterations 2
smoothSolver:  Solving for Uz, Initial residual = 0.01262600212, Final residual = 0.0009043647081, No Iterations 2
GAMG:  Solving for p, Initial residual = 0.1857810969, Final residual = 0.00144205306, No Iterations 3
time step continuity errors : sum local = 0.0001027834887, global = -2.294557005e-06, cumulative = -0.0004710616081
ExecutionTime = 234.69 s  ClockTime = 250 s

Time = 118

smoothSolver:  Solving for Ux, Initial residual = 0.009274829449, Final residual = 0.0004153647869, No Iterations 2
smoothSolver:  Solving for Uy, Initial residual = 0.01404351007, Final residual = 0.00107041825, No Iterations 2
smoothSolver:  Solving for Uz, Initial residual = 0.01250233037, Final residual = 0.0009189112227, No Iterations 2
GAMG:  Solving for p, Initial residual = 0.1849152552, Final residual = 0.001504446107, No Iterations 3
time step continuity errors : sum local = 0.0001064665615, global = 9.342608965e-07, cumulative = -0.0004701273472
ExecutionTime = 236.6 s  ClockTime = 252 s

Time = 119

smoothSolver:  Solving for Ux, Initial residual = 0.009160195533, Final residual = 0.000421065976, No Iterations 2
smoothSolver:  Solving for Uy, Initial residual = 0.01388844237, Final residual = 0.00108171351, No Iterations 2
smoothSolver:  Solving for Uz, Initial residual = 0.01234844852, Final residual = 0.0009273370792, No Iterations 2
GAMG:  Solving for p, Initial residual = 0.1850500823, Final residual = 0.00156384469, No Iterations 3
time step continuity errors : sum local = 0.0001101668696, global = 5.342163802e-06, cumulative = -0.0004647851834
ExecutionTime = 238.51 s  ClockTime = 254 s

Time = 120

smoothSolver:  Solving for Ux, Initial residual = 0.009061781284, Final residual = 0.0004238773457, No Iterations 2
smoothSolver:  Solving for Uy, Initial residual = 0.01371050184, Final residual = 0.001089976989, No Iterations 2
smoothSolver:  Solving for Uz, Initial residual = 0.01213900912, Final residual = 0.000927206328, No Iterations 2
GAMG:  Solving for p, Initial residual = 0.1855398755, Final residual = 0.001486530444, No Iterations 3
time step continuity errors : sum local = 0.0001050031733, global = 6.790133798e-06, cumulative = -0.0004579950496
ExecutionTime = 240.35 s  ClockTime = 256 s

Time = 121

smoothSolver:  Solving for Ux, Initial residual = 0.008985157518, Final residual = 0.0004284543622, No Iterations 2
smoothSolver:  Solving for Uy, Initial residual = 0.01358211693, Final residual = 0.001092338388, No Iterations 2
smoothSolver:  Solving for Uz, Initial residual = 0.0119113853, Final residual = 0.000920214424, No Iterations 2
GAMG:  Solving for p, Initial residual = 0.184612644, Final residual = 0.00143259557, No Iterations 3
time step continuity errors : sum local = 0.0001017744325, global = 6.641875758e-06, cumulative = -0.0004513531738
ExecutionTime = 242.08 s  ClockTime = 258 s

Time = 122

smoothSolver:  Solving for Ux, Initial residual = 0.008901468836, Final residual = 0.0004383503105, No Iterations 2
smoothSolver:  Solving for Uy, Initial residual = 0.01347032205, Final residual = 0.001091917158, No Iterations 2
smoothSolver:  Solving for Uz, Initial residual = 0.01172822439, Final residual = 0.0009131714591, No Iterations 2
GAMG:  Solving for p, Initial residual = 0.1862045013, Final residual = 0.001486284783, No Iterations 3
time step continuity errors : sum local = 0.0001069094757, global = 6.603218193e-06, cumulative = -0.0004447499556
ExecutionTime = 243.91 s  ClockTime = 260 s

Time = 123

smoothSolver:  Solving for Ux, Initial residual = 0.00883365685, Final residual = 0.0004489453007, No Iterations 2
smoothSolver:  Solving for Uy, Initial residual = 0.01333851984, Final residual = 0.001074231929, No Iterations 2
smoothSolver:  Solving for Uz, Initial residual = 0.01162198754, Final residual = 0.0009099833837, No Iterations 2
GAMG:  Solving for p, Initial residual = 0.1875740534, Final residual = 0.001610365226, No Iterations 3
time step continuity errors : sum local = 0.000116302714, global = 5.384214117e-07, cumulative = -0.0004442115342
ExecutionTime = 245.82 s  ClockTime = 262 s

Time = 124

smoothSolver:  Solving for Ux, Initial residual = 0.008701054358, Final residual = 0.0004457988207, No Iterations 2
smoothSolver:  Solving for Uy, Initial residual = 0.01317994565, Final residual = 0.001049954223, No Iterations 2
smoothSolver:  Solving for Uz, Initial residual = 0.01151387502, Final residual = 0.0009068150912, No Iterations 2
GAMG:  Solving for p, Initial residual = 0.1856953363, Final residual = 0.001601330358, No Iterations 3
time step continuity errors : sum local = 0.0001159113487, global = -5.718701296e-06, cumulative = -0.0004499302355
ExecutionTime = 247.75 s  ClockTime = 264 s

Time = 125

smoothSolver:  Solving for Ux, Initial residual = 0.008579846672, Final residual = 0.0004411702681, No Iterations 2
smoothSolver:  Solving for Uy, Initial residual = 0.01295797716, Final residual = 0.001029524578, No Iterations 2
smoothSolver:  Solving for Uz, Initial residual = 0.01137876052, Final residual = 0.0009019021726, No Iterations 2
GAMG:  Solving for p, Initial residual = 0.1842704413, Final residual = 0.001574145505, No Iterations 3
time step continuity errors : sum local = 0.0001137963713, global = -7.836574564e-06, cumulative = -0.0004577668101
ExecutionTime = 249.65 s  ClockTime = 266 s

Time = 126

smoothSolver:  Solving for Ux, Initial residual = 0.008479443985, Final residual = 0.0004370907797, No Iterations 2
smoothSolver:  Solving for Uy, Initial residual = 0.01274024811, Final residual = 0.001011990858, No Iterations 2
smoothSolver:  Solving for Uz, Initial residual = 0.01127259938, Final residual = 0.0008907981929, No Iterations 2
GAMG:  Solving for p, Initial residual = 0.1845017517, Final residual = 0.001584462692, No Iterations 3
time step continuity errors : sum local = 0.0001139550569, global = -7.698062887e-06, cumulative = -0.000465464873
ExecutionTime = 251.56 s  ClockTime = 267 s

Time = 127

smoothSolver:  Solving for Ux, Initial residual = 0.008389528691, Final residual = 0.0004296280232, No Iterations 2
smoothSolver:  Solving for Uy, Initial residual = 0.01257170396, Final residual = 0.0009976175297, No Iterations 2
smoothSolver:  Solving for Uz, Initial residual = 0.01122174732, Final residual = 0.000884209049, No Iterations 2
[...]
ExecutionTime = 1638.97 s  ClockTime = 2290 s

Time = 869

smoothSolver:  Solving for Ux, Initial residual = 0.00576317382, Final residual = 0.0003402886153, No Iterations 2
smoothSolver:  Solving for Uy, Initial residual = 0.009383580297, Final residual = 0.0006073765649, No Iterations 2
smoothSolver:  Solving for Uz, Initial residual = 0.009095486939, Final residual = 0.000658782654, No Iterations 2
GAMG:  Solving for p, Initial residual = 0.1568963958, Final residual = 0.001258120981, No Iterations 3
time step continuity errors : sum local = 8.715274315e-05, global = 8.346099818e-06, cumulative = -0.0004785897814
ExecutionTime = 1640.93 s  ClockTime = 2292 s

Time = 870

smoothSolver:  Solving for Ux, Initial residual = 0.005888250449, Final residual = 0.0003361674331, No Iterations 2
smoothSolver:  Solving for Uy, Initial residual = 0.009643562943, Final residual = 0.0006168388987, No Iterations 2
smoothSolver:  Solving for Uz, Initial residual = 0.009382564654, Final residual = 0.0006775299511, No Iterations 2
GAMG:  Solving for p, Initial residual = 0.1572442401, Final residual = 0.001243845249, No Iterations 3
time step continuity errors : sum local = 8.664015059e-05, global = 7.049294447e-06, cumulative = -0.0004715404869
ExecutionTime = 1642.68 s  ClockTime = 2294 s

Time = 871

smoothSolver:  Solving for Ux, Initial residual = 0.005995160655, Final residual = 0.0003387554042, No Iterations 2
smoothSolver:  Solving for Uy, Initial residual = 0.009834503851, Final residual = 0.0006337736627, No Iterations 2
smoothSolver:  Solving for Uz, Initial residual = 0.009640397979, Final residual = 0.0006922752727, No Iterations 2
GAMG:  Solving for p, Initial residual = 0.1538239853, Final residual = 0.001202119777, No Iterations 3
time step continuity errors : sum local = 8.354696155e-05, global = 3.97434467e-06, cumulative = -0.0004675661423
ExecutionTime = 1644.74 s  ClockTime = 2297 s

Time = 872

smoothSolver:  Solving for Ux, Initial residual = 0.006047129134, Final residual = 0.0003468419742, No Iterations 2
smoothSolver:  Solving for Uy, Initial residual = 0.009922067958, Final residual = 0.0006511117666, No Iterations 2
smoothSolver:  Solving for Uz, Initial residual = 0.009781125038, Final residual = 0.0007061381258, No Iterations 2
GAMG:  Solving for p, Initial residual = 0.1529010424, Final residual = 0.001139944772, No Iterations 3
time step continuity errors : sum local = 7.922723987e-05, global = 2.214815956e-07, cumulative = -0.0004673446607
ExecutionTime = 1646.55 s  ClockTime = 2299 s

Time = 873

smoothSolver:  Solving for Ux, Initial residual = 0.006084828033, Final residual = 0.0003535677024, No Iterations 2
smoothSolver:  Solving for Uy, Initial residual = 0.009956105842, Final residual = 0.0006613169623, No Iterations 2
smoothSolver:  Solving for Uz, Initial residual = 0.00978092055, Final residual = 0.0007079056015, No Iterations 2
GAMG:  Solving for p, Initial residual = 0.1542182787, Final residual = 0.001172570364, No Iterations 3
time step continuity errors : sum local = 8.131554603e-05, global = -2.836389888e-06, cumulative = -0.0004701810506
ExecutionTime = 1648.37 s  ClockTime = 2301 s

Time = 874

smoothSolver:  Solving for Ux, Initial residual = 0.00611209924, Final residual = 0.0003593425516, No Iterations 2
smoothSolver:  Solving for Uy, Initial residual = 0.009966130057, Final residual = 0.0006722719573, No Iterations 2
smoothSolver:  Solving for Uz, Initial residual = 0.009676102425, Final residual = 0.0007076695338, No Iterations 2
GAMG:  Solving for p, Initial residual = 0.1543745695, Final residual = 0.001258420576, No Iterations 3
time step continuity errors : sum local = 8.667043852e-05, global = -3.972333438e-06, cumulative = -0.000474153384
ExecutionTime = 1650.23 s  ClockTime = 2303 s

Time = 875

smoothSolver:  Solving for Ux, Initial residual = 0.006114386371, Final residual = 0.0003591832913, No Iterations 2
smoothSolver:  Solving for Uy, Initial residual = 0.01001285019, Final residual = 0.0006820358341, No Iterations 2
smoothSolver:  Solving for Uz, Initial residual = 0.009583245405, Final residual = 0.000707660477, No Iterations 2
GAMG:  Solving for p, Initial residual = 0.1541378169, Final residual = 0.001289383131, No Iterations 3
time step continuity errors : sum local = 8.848488941e-05, global = -5.074616716e-06, cumulative = -0.0004792280007
ExecutionTime = 1652.18 s  ClockTime = 2305 s

Time = 876

smoothSolver:  Solving for Ux, Initial residual = 0.006110809172, Final residual = 0.000358816168, No Iterations 2
smoothSolver:  Solving for Uy, Initial residual = 0.01010700442, Final residual = 0.0006918235264, No Iterations 2
smoothSolver:  Solving for Uz, Initial residual = 0.009559946981, Final residual = 0.0007103227496, No Iterations 2
GAMG:  Solving for p, Initial residual = 0.1524319588, Final residual = 0.001250055982, No Iterations 3
time step continuity errors : sum local = 8.518045303e-05, global = -4.919295524e-06, cumulative = -0.0004841472962
ExecutionTime = 1654.22 s  ClockTime = 2307 s

Time = 877

smoothSolver:  Solving for Ux, Initial residual = 0.006113056754, Final residual = 0.00035811994, No Iterations 2
smoothSolver:  Solving for Uy, Initial residual = 0.01023207636, Final residual = 0.0007013383043, No Iterations 2
smoothSolver:  Solving for Uz, Initial residual = 0.009586177108, Final residual = 0.0007168708089, No Iterations 2
GAMG:  Solving for p, Initial residual = 0.1527002048, Final residual = 0.00123053796, No Iterations 3
time step continuity errors : sum local = 8.35067855e-05, global = -4.181984093e-06, cumulative = -0.0004883292803
ExecutionTime = 1656.06 s  ClockTime = 2309 s

Time = 878

smoothSolver:  Solving for Ux, Initial residual = 0.006134744712, Final residual = 0.0003627931061, No Iterations 2
smoothSolver:  Solving for Uy, Initial residual = 0.01033216299, Final residual = 0.0007111515809, No Iterations 2
smoothSolver:  Solving for Uz, Initial residual = 0.009686282299, Final residual = 0.0007257635356, No Iterations 2
GAMG:  Solving for p, Initial residual = 0.1544270748, Final residual = 0.001278187171, No Iterations 3
time step continuity errors : sum local = 8.658576389e-05, global = -2.828266294e-06, cumulative = -0.0004911575466
ExecutionTime = 1657.87 s  ClockTime = 2311 s

Time = 879

smoothSolver:  Solving for Ux, Initial residual = 0.006137387897, Final residual = 0.0003675643644, No Iterations 2
smoothSolver:  Solving for Uy, Initial residual = 0.0103834314, Final residual = 0.0007269709876, No Iterations 2
smoothSolver:  Solving for Uz, Initial residual = 0.009777906179, Final residual = 0.0007465705196, No Iterations 2
GAMG:  Solving for p, Initial residual = 0.1548759154, Final residual = 0.001339996829, No Iterations 3
time step continuity errors : sum local = 9.067148389e-05, global = -9.7179958e-07, cumulative = -0.0004921293462
ExecutionTime = 1659.85 s  ClockTime = 2314 s

Time = 880

smoothSolver:  Solving for Ux, Initial residual = 0.006143105651, Final residual = 0.0003756444653, No Iterations 2
smoothSolver:  Solving for Uy, Initial residual = 0.01045274443, Final residual = 0.0007531853396, No Iterations 2
smoothSolver:  Solving for Uz, Initial residual = 0.009901547934, Final residual = 0.0007761415203, No Iterations 2
GAMG:  Solving for p, Initial residual = 0.1558847557, Final residual = 0.001360853664, No Iterations 3
time step continuity errors : sum local = 9.205944195e-05, global = 2.05813596e-06, cumulative = -0.0004900712102
ExecutionTime = 1661.83 s  ClockTime = 2316 s

Time = 881

smoothSolver:  Solving for Ux, Initial residual = 0.006161116521, Final residual = 0.000380302999, No Iterations 2
smoothSolver:  Solving for Uy, Initial residual = 0.01053953489, Final residual = 0.0007860533693, No Iterations 2
smoothSolver:  Solving for Uz, Initial residual = 0.01002415807, Final residual = 0.000807720825, No Iterations 2
GAMG:  Solving for p, Initial residual = 0.1567219991, Final residual = 0.001312914383, No Iterations 3
time step continuity errors : sum local = 8.898075718e-05, global = 4.212537714e-06, cumulative = -0.0004858586725
ExecutionTime = 1664.1 s  ClockTime = 2319 s

Time = 882

smoothSolver:  Solving for Ux, Initial residual = 0.006232952123, Final residual = 0.0003930116855, No Iterations 2
smoothSolver:  Solving for Uy, Initial residual = 0.01069566861, Final residual = 0.0008160483457, No Iterations 2
smoothSolver:  Solving for Uz, Initial residual = 0.01021965824, Final residual = 0.0008436756436, No Iterations 2
GAMG:  Solving for p, Initial residual = 0.1568214619, Final residual = 0.001341714418, No Iterations 3
time step continuity errors : sum local = 9.096595795e-05, global = 4.922638746e-06, cumulative = -0.0004809360338
ExecutionTime = 1666.53 s  ClockTime = 2322 s

Time = 883

smoothSolver:  Solving for Ux, Initial residual = 0.006347194873, Final residual = 0.0004031335521, No Iterations 2
smoothSolver:  Solving for Uy, Initial residual = 0.01088575299, Final residual = 0.0008439198129, No Iterations 2
smoothSolver:  Solving for Uz, Initial residual = 0.01041231992, Final residual = 0.0008767486482, No Iterations 2
GAMG:  Solving for p, Initial residual = 0.1563628225, Final residual = 0.001373993582, No Iterations 3
time step continuity errors : sum local = 9.309087741e-05, global = 5.733985808e-06, cumulative = -0.000475202048
ExecutionTime = 1668.61 s  ClockTime = 2324 s

Time = 884

smoothSolver:  Solving for Ux, Initial residual = 0.006468957707, Final residual = 0.0004181466279, No Iterations 2
smoothSolver:  Solving for Uy, Initial residual = 0.01111568214, Final residual = 0.0008671192561, No Iterations 2
smoothSolver:  Solving for Uz, Initial residual = 0.01066779662, Final residual = 0.0009027535536, No Iterations 2
GAMG:  Solving for p, Initial residual = 0.1560218262, Final residual = 0.001410983029, No Iterations 3
time step continuity errors : sum local = 9.552286894e-05, global = 6.316739536e-06, cumulative = -0.0004688853084
ExecutionTime = 1670.57 s  ClockTime = 2326 s

Time = 885

smoothSolver:  Solving for Ux, Initial residual = 0.00661109098, Final residual = 0.0004341412945, No Iterations 2
smoothSolver:  Solving for Uy, Initial residual = 0.01134865866, Final residual = 0.0008858754841, No Iterations 2
smoothSolver:  Solving for Uz, Initial residual = 0.01096104928, Final residual = 0.0009228250968, No Iterations 2
GAMG:  Solving for p, Initial residual = 0.156071737, Final residual = 0.001443056291, No Iterations 3
time step continuity errors : sum local = 9.748318192e-05, global = 7.878498111e-06, cumulative = -0.0004610068103
ExecutionTime = 1672.68 s  ClockTime = 2329 s

Time = 886

smoothSolver:  Solving for Ux, Initial residual = 0.006709474986, Final residual = 0.0004394320474, No Iterations 2
smoothSolver:  Solving for Uy, Initial residual = 0.01153369595, Final residual = 0.0009036719791, No Iterations 2
smoothSolver:  Solving for Uz, Initial residual = 0.01122610205, Final residual = 0.0009240081499, No Iterations 2
GAMG:  Solving for p, Initial residual = 0.1561411322, Final residual = 0.001426197561, No Iterations 3
time step continuity errors : sum local = 9.66894883e-05, global = 8.743453657e-06, cumulative = -0.0004522633567
ExecutionTime = 1674.92 s  ClockTime = 2331 s

Time = 887

smoothSolver:  Solving for Ux, Initial residual = 0.006790603069, Final residual = 0.0004426480419, No Iterations 2
smoothSolver:  Solving for Uy, Initial residual = 0.01160813396, Final residual = 0.0009155971112, No Iterations 2
smoothSolver:  Solving for Uz, Initial residual = 0.01143405637, Final residual = 0.0009229493195, No Iterations 2
GAMG:  Solving for p, Initial residual = 0.1564143604, Final residual = 0.001390622007, No Iterations 3
time step continuity errors : sum local = 9.458822438e-05, global = 8.238971268e-06, cumulative = -0.0004440243854
ExecutionTime = 1677.32 s  ClockTime = 2334 s

Time = 888

smoothSolver:  Solving for Ux, Initial residual = 0.006840326753, Final residual = 0.0004426267193, No Iterations 2
smoothSolver:  Solving for Uy, Initial residual = 0.01157548249, Final residual = 0.0009164746914, No Iterations 2
smoothSolver:  Solving for Uz, Initial residual = 0.01158828793, Final residual = 0.000925883695, No Iterations 2
GAMG:  Solving for p, Initial residual = 0.1556827888, Final residual = 0.001398893142, No Iterations 3
time step continuity errors : sum local = 9.567509776e-05, global = 6.587815066e-06, cumulative = -0.0004374365703
ExecutionTime = 1680.03 s  ClockTime = 2337 s

Time = 889

smoothSolver:  Solving for Ux, Initial residual = 0.006886280878, Final residual = 0.0004409047547, No Iterations 2
smoothSolver:  Solving for Uy, Initial residual = 0.01151388904, Final residual = 0.0009089164563, No Iterations 2
smoothSolver:  Solving for Uz, Initial residual = 0.01166083418, Final residual = 0.0009233742635, No Iterations 2
GAMG:  Solving for p, Initial residual = 0.1519453567, Final residual = 0.001366218368, No Iterations 3
time step continuity errors : sum local = 9.372988939e-05, global = 3.571979844e-06, cumulative = -0.0004338645905
ExecutionTime = 1681.98 s  ClockTime = 2339 s

Time = 890

smoothSolver:  Solving for Ux, Initial residual = 0.006922930765, Final residual = 0.0004394151236, No Iterations 2
smoothSolver:  Solving for Uy, Initial residual = 0.01144812139, Final residual = 0.0008974477708, No Iterations 2
smoothSolver:  Solving for Uz, Initial residual = 0.0117079397, Final residual = 0.0009153481627, No Iterations 2
GAMG:  Solving for p, Initial residual = 0.1504474742, Final residual = 0.001350235866, No Iterations 3
time step continuity errors : sum local = 9.304364289e-05, global = -1.714714414e-06, cumulative = -0.0004355793049
ExecutionTime = 1683.82 s  ClockTime = 2341 s

Time = 891

smoothSolver:  Solving for Ux, Initial residual = 0.006920356521, Final residual = 0.000428595808, No Iterations 2
smoothSolver:  Solving for Uy, Initial residual = 0.01134251199, Final residual = 0.0008810899317, No Iterations 2
smoothSolver:  Solving for Uz, Initial residual = 0.01172240204, Final residual = 0.0009092556037, No Iterations 2
GAMG:  Solving for p, Initial residual = 0.1498550048, Final residual = 0.00135686701, No Iterations 3
time step continuity errors : sum local = 9.389510355e-05, global = -7.833439631e-06, cumulative = -0.0004434127445
ExecutionTime = 1686.01 s  ClockTime = 2343 s

Time = 892

smoothSolver:  Solving for Ux, Initial residual = 0.006898415863, Final residual = 0.0004182234568, No Iterations 2
smoothSolver:  Solving for Uy, Initial residual = 0.01121852856, Final residual = 0.0008593507061, No Iterations 2
smoothSolver:  Solving for Uz, Initial residual = 0.01172896119, Final residual = 0.0009061859046, No Iterations 2
GAMG:  Solving for p, Initial residual = 0.1497298053, Final residual = 0.001321445508, No Iterations 3
time step continuity errors : sum local = 9.134591281e-05, global = -1.055671901e-05, cumulative = -0.0004539694635
ExecutionTime = 1688.05 s  ClockTime = 2345 s

Time = 893

smoothSolver:  Solving for Ux, Initial residual = 0.006850991774, Final residual = 0.0004070104214, No Iterations 2
smoothSolver:  Solving for Uy, Initial residual = 0.01114868246, Final residual = 0.0008319894706, No Iterations 2
smoothSolver:  Solving for Uz, Initial residual = 0.01170445784, Final residual = 0.0008931705622, No Iterations 2
GAMG:  Solving for p, Initial residual = 0.1510623252, Final residual = 0.00129817549, No Iterations 3
time step continuity errors : sum local = 8.921882043e-05, global = -1.013592677e-05, cumulative = -0.0004641053903
ExecutionTime = 1690.08 s  ClockTime = 2348 s

Time = 894

smoothSolver:  Solving for Ux, Initial residual = 0.006780578566, Final residual = 0.0003970754704, No Iterations 2
smoothSolver:  Solving for Uy, Initial residual = 0.01115471678, Final residual = 0.000801241781, No Iterations 2
smoothSolver:  Solving for Uz, Initial residual = 0.01166655477, Final residual = 0.0008696755699, No Iterations 2
GAMG:  Solving for p, Initial residual = 0.1498414037, Final residual = 0.001291310414, No Iterations 3
time step continuity errors : sum local = 8.769046764e-05, global = -9.522401951e-06, cumulative = -0.0004736277923
ExecutionTime = 1691.99 s  ClockTime = 2350 s

Time = 895

smoothSolver:  Solving for Ux, Initial residual = 0.006687679219, Final residual = 0.0003821409772, No Iterations 2
smoothSolver:  Solving for Uy, Initial residual = 0.0112283058, Final residual = 0.000777658539, No Iterations 2
smoothSolver:  Solving for Uz, Initial residual = 0.01158636311, Final residual = 0.0008346220487, No Iterations 2
GAMG:  Solving for p, Initial residual = 0.1498061508, Final residual = 0.001333970583, No Iterations 3
time step continuity errors : sum local = 8.98048127e-05, global = -6.704212112e-06, cumulative = -0.0004803320044
ExecutionTime = 1694.11 s  ClockTime = 2352 s

Time = 896

smoothSolver:  Solving for Ux, Initial residual = 0.00662115922, Final residual = 0.0003729472213, No Iterations 2
smoothSolver:  Solving for Uy, Initial residual = 0.01130565265, Final residual = 0.000765130763, No Iterations 2
smoothSolver:  Solving for Uz, Initial residual = 0.01153658588, Final residual = 0.0008005348345, No Iterations 2
GAMG:  Solving for p, Initial residual = 0.1466761059, Final residual = 0.001361700474, No Iterations 3
time step continuity errors : sum local = 9.109467209e-05, global = -2.116067827e-06, cumulative = -0.0004824480722
ExecutionTime = 1696.09 s  ClockTime = 2354 s

Time = 897

smoothSolver:  Solving for Ux, Initial residual = 0.006558922963, Final residual = 0.0003617990839, No Iterations 2
smoothSolver:  Solving for Uy, Initial residual = 0.01135230868, Final residual = 0.0007547928764, No Iterations 2
smoothSolver:  Solving for Uz, Initial residual = 0.01145061823, Final residual = 0.0007735439437, No Iterations 2
GAMG:  Solving for p, Initial residual = 0.1429695754, Final residual = 0.001305284121, No Iterations 3
time step continuity errors : sum local = 8.722089899e-05, global = 1.919456721e-06, cumulative = -0.0004805286155
ExecutionTime = 1698.02 s  ClockTime = 2356 s

Time = 898

smoothSolver:  Solving for Ux, Initial residual = 0.006496964767, Final residual = 0.0003506954212, No Iterations 2
smoothSolver:  Solving for Uy, Initial residual = 0.01137021371, Final residual = 0.0007425999973, No Iterations 2
smoothSolver:  Solving for Uz, Initial residual = 0.01131047287, Final residual = 0.0007465392478, No Iterations 2
GAMG:  Solving for p, Initial residual = 0.1399438509, Final residual = 0.001199781612, No Iterations 3
time step continuity errors : sum local = 8.035980741e-05, global = 4.858161606e-06, cumulative = -0.0004756704539
ExecutionTime = 1700.25 s  ClockTime = 2359 s

Time = 899

smoothSolver:  Solving for Ux, Initial residual = 0.006447145019, Final residual = 0.0003438926101, No Iterations 2
smoothSolver:  Solving for Uy, Initial residual = 0.01137227318, Final residual = 0.0007318627037, No Iterations 2
smoothSolver:  Solving for Uz, Initial residual = 0.01111269525, Final residual = 0.0007221191106, No Iterations 2
GAMG:  Solving for p, Initial residual = 0.1375302261, Final residual = 0.001091722617, No Iterations 3
time step continuity errors : sum local = 7.327040076e-05, global = 6.334282058e-06, cumulative = -0.0004693361718
ExecutionTime = 1702.16 s  ClockTime = 2361 s

Time = 900

smoothSolver:  Solving for Ux, Initial residual = 0.006391012116, Final residual = 0.0003407305787, No Iterations 2
smoothSolver:  Solving for Uy, Initial residual = 0.01133692963, Final residual = 0.0007262945955, No Iterations 2
smoothSolver:  Solving for Uz, Initial residual = 0.01088308052, Final residual = 0.00069487149, No Iterations 2
GAMG:  Solving for p, Initial residual = 0.136422973, Final residual = 0.001051703638, No Iterations 3
time step continuity errors : sum local = 7.098904871e-05, global = 6.589333256e-06, cumulative = -0.0004627468386
