/*---------------------------------------------------------------------------*\
| =========                 |                                                 |
| \\      /  F ield         | OpenFOAM: The Open Source CFD Toolbox           |
|  \\    /   O peration     | Version:  v1706                                 |
|   \\  /    A nd           | Web:      www.OpenFOAM.com                      |
|    \\/     M anipulation  |                                                 |
\*---------------------------------------------------------------------------*/
Build  : v1706
Arch   : "LSB;label=32;scalar=64"
Exec   : blockMesh -dict system/blockMeshDict -case /home/cho/nsx_np2
Date   : Jan 05 2018
Time   : 00:20:00
Host   : "cho-VirtualBox"
PID    : 2528
Case   : /home/cho/nsx_np2
nProcs : 1
sigFpe : Enabling floating point exception trapping (FOAM_SIGFPE).
fileModificationChecking : Monitoring run-time modified files using timeStampMaster (fileModificationSkew 10)
allowSystemOperations : Allowing user-supplied system call operations

// * * * * * * * * * * * * * * * * * * * * * * * * * * * * * * * * * * * * * //
Create time

Creating block mesh from
    "/home/cho/nsx_np2/system/blockMeshDict"
Creating block edges
No non-planar block faces defined
Creating topology blocks
Creating topology patches

Reading patches section

Creating block mesh topology

Reading physicalType from existing boundary file

Default patch type set to empty

Check topology

	Basic statistics
		Number of internal faces : 0
		Number of boundary faces : 6
		Number of defined boundary faces : 6
		Number of undefined boundary faces : 0
	Checking patch -> block consistency

Creating block offsets
Creating merge list .

Creating polyMesh from blockMesh
Creating patches
Creating cells
Creating points with scale 1
    Block 0 cell size :
        i : 1 .. 1
        j : 1 .. 1
        k : 1 .. 1


Writing polyMesh with 0 cellZones
----------------
Mesh Information
----------------
  boundingBox: (-100 -50 -1) (100 50 50)
  nPoints: 1055652
  nCells: 1020000
  nFaces: 3095300
  nInternalFaces: 3024700
----------------
Patches
----------------
  patch 0 (start: 3024700 size: 5100) name: ffminx
  patch 1 (start: 3029800 size: 5100) name: ffmaxx
  patch 2 (start: 3034900 size: 10200) name: ffminy
  patch 3 (start: 3045100 size: 10200) name: ffmaxy
  patch 4 (start: 3055300 size: 20000) name: ffminz
  patch 5 (start: 3075300 size: 20000) name: ffmaxz

End

/*---------------------------------------------------------------------------*\
| =========                 |                                                 |
| \\      /  F ield         | OpenFOAM: The Open Source CFD Toolbox           |
|  \\    /   O peration     | Version:  v1706                                 |
|   \\  /    A nd           | Web:      www.OpenFOAM.com                      |
|    \\/     M anipulation  |                                                 |
\*---------------------------------------------------------------------------*/
Build  : v1706
Arch   : "LSB;label=32;scalar=64"
Exec   : decomposePar -force -noFunctionObjects -case /home/cho/nsx_np2
Date   : Jan 05 2018
Time   : 00:20:12
Host   : "cho-VirtualBox"
PID    : 2530
Case   : /home/cho/nsx_np2
nProcs : 1
sigFpe : Enabling floating point exception trapping (FOAM_SIGFPE).
fileModificationChecking : Monitoring run-time modified files using timeStampMaster (fileModificationSkew 10)
allowSystemOperations : Allowing user-supplied system call operations

// * * * * * * * * * * * * * * * * * * * * * * * * * * * * * * * * * * * * * //
Create time



Decomposing mesh region0

Create mesh

Calculating distribution of cells
Selecting decompositionMethod hierarchical

Finished decomposition in 1.26 s

Calculating original mesh data

Distributing cells to processors

Distributing faces to processors

Distributing points to processors

Constructing processor meshes

Processor 0
    Number of cells = 510000
    Number of faces shared with processor 1 = 10200
    Number of processor patches = 1
    Number of processor faces = 10200
    Number of boundary faces = 35300

Processor 1
    Number of cells = 510000
    Number of faces shared with processor 0 = 10200
    Number of processor patches = 1
    Number of processor faces = 10200
    Number of boundary faces = 35300

Number of processor faces = 10200
Max number of cells = 510000 (0% above average 510000)
Max number of processor patches = 1 (0% above average 1)
Max number of faces between processors = 10200 (0% above average 10200)

Time = 0

Processor 0: field transfer
Processor 1: field transfer

End

/*---------------------------------------------------------------------------*\
| =========                 |                                                 |
| \\      /  F ield         | OpenFOAM: The Open Source CFD Toolbox           |
|  \\    /   O peration     | Version:  v1706                                 |
|   \\  /    A nd           | Web:      www.OpenFOAM.com                      |
|    \\/     M anipulation  |                                                 |
\*---------------------------------------------------------------------------*/
Build  : v1706
Arch   : "LSB;label=32;scalar=64"
Exec   : snappyHexMesh -parallel -overwrite -case /home/cho/nsx_np2
Date   : Jan 05 2018
Time   : 00:20:34
Host   : "cho-VirtualBox"
PID    : 2622
Case   : /home/cho/nsx_np2
nProcs : 2
Slaves : 1("cho-VirtualBox.2623")
Pstream initialized with:
    floatTransfer      : 0
    nProcsSimpleSum    : 0
    commsType          : nonBlocking
    polling iterations : 0
sigFpe : Enabling floating point exception trapping (FOAM_SIGFPE).
fileModificationChecking : Monitoring run-time modified files using timeStampMaster (fileModificationSkew 10)
allowSystemOperations : Allowing user-supplied system call operations

// * * * * * * * * * * * * * * * * * * * * * * * * * * * * * * * * * * * * * //
Create time

Create mesh for time = 0

Read mesh in = 2.94 s

Overall mesh bounding box  : (-100 -50 -1) (100 50 50)
Relative tolerance         : 1e-06
Absolute matching distance : 0.0002293490789

Reading refinement surfaces.
Read refinement surfaces in = 0.73 s

Reading refinement shells.
Read refinement shells in = 0 s

Setting refinement level of surface to be consistent with shells.
For geometry nsx_concept_LOW.stl detected 0 uncached triangles out of 209712
Checked shell refinement in = 1.13 s

Reading features.
Read features in = 0 s


Determining initial surface intersections
-----------------------------------------

Edge intersection testing:
    Number of edges             : 3095300
    Number of edges to retest   : 3095300
    Number of intersected edges : 12221
Calculated surface intersections in = 2.91 s

Initial mesh : cells:1020000  faces:3095300  points:1055652
Cells per refinement level:
    0	1020000

Adding patches for surface regions
----------------------------------

Patch Type                Region                        
----- ----                ------                        
nsx_concept_LOW:

6     wall                nsx_concept_LOW               

Added patches in = 0.11 s

Edge intersection testing:
    Number of edges             : 3095300
    Number of edges to retest   : 0
    Number of intersected edges : 12221
Selecting decompositionMethod hierarchical

Refinement phase
----------------

Found point (-50 0 30) in cell 300049 on processor 1

Surface refinement iteration 0
------------------------------

Marked for refinement due to surface intersection          : 0 cells.
Determined cells to refine in = 6.23 s
Selected for refinement : 0 cells (out of 1020000)
Stopping refining since too few cells selected.


Removing mesh beyond surface intersections
------------------------------------------

Setting cellZones according to locationsInMesh:
Location : (-50 0 30)
    cellZone : none

For cellZone none found point (-50 0 30) in global region 0 out of 14 regions.
Keeping all cells containing points 1((-50 0 30))
Selected for keeping : 1000991 cells.
Edge intersection testing:
    Number of edges             : 3042521
    Number of edges to retest   : 8496
    Number of intersected edges : 12221

Shell refinement iteration 0
----------------------------

Marked for refinement due to distance to explicit features : 0 cells.
Marked for refinement due to refinement shells             : 0 cells.
Determined cells to refine in = 83.73 s
Selected for internal refinement : 0 cells (out of 1000991)
Stopping refining since too few cells selected.


Dangling coarse cells refinement iteration 0
--------------------------------------------

Determined cells to refine in = 0.07 s
Selected for refinement : 0 cells (out of 1000991)
Stopping refining since too few cells selected.


Dangling coarse cells refinement iteration 0
--------------------------------------------

Determined cells to refine in = 0.02 s
Selected for refinement : 0 cells (out of 1000991)
Stopping refining since too few cells selected.


Refinement transition refinement iteration 0
--------------------------------------------

Determined cells to refine in = 0.04 s
Selected for refinement : 0 cells (out of 1000991)
Stopping refining since too few cells selected.


Splitting mesh at surface intersections
---------------------------------------

Introducing baffles for 12221 faces that are intersected by the surface.

Setting cellZones according to locationsInMesh:
Location : (-50 0 30)
    cellZone : none

For cellZone none found point (-50 0 30) in global region 0 out of 14 regions.
Edge intersection testing:
    Number of edges             : 3054742
    Number of edges to retest   : 69189
    Number of intersected edges : 24442
Created baffles in = 54.37 s


After introducing baffles : cells:1000991  faces:3054742  points:1040636
Cells per refinement level:
    0	1000991

Introducing baffles to block off problem cells
----------------------------------------------

markFacesOnProblemCells : marked 17725 additional internal faces to be converted into baffles.
Analyzed problem cells in = 1.67 s


Introducing baffles to delete problem cells.

Edge intersection testing:
    Number of edges             : 3072467
    Number of edges to retest   : 60678
    Number of intersected edges : 24442
Created baffles in = 2.1 s


After introducing baffles : cells:1000991  faces:3072467  points:1040636
Cells per refinement level:
    0	1000991
Setting cellZones according to locationsInMesh:
Location : (-50 0 30)
    cellZone : none

For cellZone none found point (-50 0 30) in global region 0 out of 8833 regions.
Edge intersection testing:
    Number of edges             : 3072467
    Number of edges to retest   : 81332
    Number of intersected edges : 24442

Remove unreachable sections of mesh
-----------------------------------

Keeping all cells containing points 1((-50 0 30))
Selected for keeping : 988160 cells.
Edge intersection testing:
    Number of edges             : 3004533
    Number of edges to retest   : 0
    Number of intersected edges : 8943
Split mesh in = 105.96 s


After subsetting : cells:988160  faces:3004533  points:1028361
Cells per refinement level:
    0	988160

Introducing zones for interfaces
--------------------------------

Setting cellZones according to locationsInMesh:
Location : (-50 0 30)
    cellZone : none

For cellZone none found point (-50 0 30) in global region 0 out of 1 regions.
Setting faceZones according to neighbouring cellZones:

Edge intersection testing:
    Number of edges             : 3004533
    Number of edges to retest   : 0
    Number of intersected edges : 8943

Handling cells with snap problems
---------------------------------

Introducing baffles for 8943 faces that are intersected by the surface.

Setting cellZones according to locationsInMesh:
Location : (-50 0 30)
    cellZone : none

For cellZone none found point (-50 0 30) in global region 0 out of 1 regions.
Edge intersection testing:
    Number of edges             : 3004533
    Number of edges to retest   : 30105
    Number of intersected edges : 8943
Created baffles in = 109.88 s


After introducing baffles : cells:988160  faces:3004533  points:1028361
Cells per refinement level:
    0	988160

Introducing baffles to block off problem cells
----------------------------------------------

markFacesOnProblemCells : marked 67 additional internal faces to be converted into baffles.
Analyzed problem cells in = 1.8 s


Introducing baffles to delete problem cells.

Edge intersection testing:
    Number of edges             : 3004600
    Number of edges to retest   : 363
    Number of intersected edges : 8943
Created baffles in = 3.64 s


After introducing baffles : cells:988160  faces:3004600  points:1028361
Cells per refinement level:
    0	988160
Setting cellZones according to locationsInMesh:
Location : (-50 0 30)
    cellZone : none

For cellZone none found point (-50 0 30) in global region 0 out of 33 regions.
Edge intersection testing:
    Number of edges             : 3004600
    Number of edges to retest   : 30144
    Number of intersected edges : 8943

Remove unreachable sections of mesh
-----------------------------------

Keeping all cells containing points 1((-50 0 30))
Selected for keeping : 988128 cells.
Edge intersection testing:
    Number of edges             : 3004408
    Number of edges to retest   : 0
    Number of intersected edges : 8897
Split mesh in = 119 s


After subsetting : cells:988128  faces:3004408  points:1028299
Cells per refinement level:
    0	988128

Merge free-standing baffles
---------------------------

freeStandingBaffles : detected 77 free-standing baffles out of 77

freeStandingBaffles : detected 7 planar (within 30 degrees) free-standing baffles out of 77

Detected free-standing baffles : 7
Edge intersection testing:
    Number of edges             : 3004401
    Number of edges to retest   : 7
    Number of intersected edges : 8890

Introducing baffles to block off problem cells
----------------------------------------------

markFacesOnProblemCells : marked 0 additional internal faces to be converted into baffles.
Analyzed problem cells in = 3.46 s


Introducing baffles to delete problem cells.

Created baffles in = 0.22 s


After introducing baffles : cells:988128  faces:3004401  points:1028299
Cells per refinement level:
    0	988128

Remove unreachable sections of mesh
-----------------------------------

Merged free-standing baffles in = 46.66 s


dupNonManifoldPoints : Found : 87 non-manifold points (out of 1037727)
Edge intersection testing:
    Number of edges             : 3004401
    Number of edges to retest   : 0
    Number of intersected edges : 8890
Detected unsplittable baffles : 0

Merge refined boundary faces
----------------------------

Merging 0 sets of faces.

No faces merged ...

Merging all points on surface that
- are used by only two boundary faces and
- make an angle with a cosine of more than 0.7071067812.

No straight edges simplified and no points removed ...

Doing final balancing
---------------------

Found 0 zoned faces to keep together.
Found 0 separated coupled faces to keep together.
Refined mesh : cells:988128  faces:3004401  points:1028386
Cells per refinement level:
    0	988128
Writing mesh to time constant
Wrote mesh in = 13.32 s.
Mesh refined in = 551.89 s.

Morphing phase
--------------

Duplicating 0 points on faceZones of type boundary
Snapping to features in 10 iterations ...
Constructing mesh displacer ...
Using mesh parameters 
{
    maxNonOrtho     65;
    maxBoundarySkewness 20;
    maxInternalSkewness 4;
    maxConcave      80;
    minFlatness     0.5;
    minVol          1e-13;
    minTetQuality   1e-15;
    minArea         -1;
    minTwist        0.02;
    minDeterminant  0.001;
    minFaceWeight   0.05;
    minVolRatio     0.01;
    minTriangleTwist -1;
    nSmoothScale    4;
    errorReduction  0.75;
    relaxed
    {
        maxNonOrtho     75;
    }
}


Checking initial mesh ...
Checking faces in error :
    non-orthogonality > 65  degrees                        : 0
    faces with face pyramid volume < 1e-13                 : 0
    faces with face-decomposition tet quality < 1e-15      : 0
    faces with concavity > 80  degrees                     : 0
    faces with skewness > 4   (internal) or 20  (boundary) : 0
    faces with interpolation weights (0..1)  < 0.05        : 0
    faces with volume ratio of neighbour cells < 0.01      : 0
    faces with face twist < 0.02                           : 0
    faces on cells with determinant < 0.001                : 0
Detected 0 illegal faces (concave, zero area or negative cell pyramid volume)
Checked initial mesh in = 3.24 s


Smoothing patch points ...
Smoothing iteration 0
Found 174 non-manifold point(s).

Scaling iteration 0
Moving mesh using displacement scaling : min:1  max:1
Checking faces in error :
    non-orthogonality > 65  degrees                        : 0
    faces with face pyramid volume < 1e-13                 : 0
    faces with face-decomposition tet quality < 1e-15      : 0
    faces with concavity > 80  degrees                     : 0
    faces with skewness > 4   (internal) or 20  (boundary) : 0
    faces with interpolation weights (0..1)  < 0.05        : 0
    faces with volume ratio of neighbour cells < 0.01      : 0
    faces with face twist < 0.02                           : 0
    faces on cells with determinant < 0.001                : 0
Successfully moved mesh

Smoothing iteration 1
Found 0 non-manifold point(s).

Scaling iteration 0
Moving mesh using displacement scaling : min:1  max:1
Checking faces in error :
    non-orthogonality > 65  degrees                        : 0
    faces with face pyramid volume < 1e-13                 : 0
    faces with face-decomposition tet quality < 1e-15      : 0
    faces with concavity > 80  degrees                     : 0
    faces with skewness > 4   (internal) or 20  (boundary) : 0
    faces with interpolation weights (0..1)  < 0.05        : 0
    faces with volume ratio of neighbour cells < 0.01      : 0
    faces with face twist < 0.02                           : 0
    faces on cells with determinant < 0.001                : 0
Successfully moved mesh

Smoothing iteration 2
Found 0 non-manifold point(s).

Scaling iteration 0
Moving mesh using displacement scaling : min:1  max:1
Checking faces in error :
    non-orthogonality > 65  degrees                        : 0
    faces with face pyramid volume < 1e-13                 : 0
    faces with face-decomposition tet quality < 1e-15      : 0
    faces with concavity > 80  degrees                     : 0
    faces with skewness > 4   (internal) or 20  (boundary) : 0
    faces with interpolation weights (0..1)  < 0.05        : 0
    faces with volume ratio of neighbour cells < 0.01      : 0
    faces with face twist < 0.02                           : 0
    faces on cells with determinant < 0.001                : 0
Successfully moved mesh

Patch points smoothed in = 11.96 s



Morph iteration 0
-----------------
Calculating patchDisplacement as distance to nearest surface point ...
    non-zone points : attract to nearest of all non-zone surfaces
    zone points     : attract to zone surface only

Wanted displacement : average:0.1982057207 min:2.608573336e-05 max:1.202508466
Calculated surface displacement in = 0.05 s


Detecting near surfaces ...
Overriding nearest with intersection of close gaps at 56 out of 9628 points.
Overriding displacement on features :
   implicit features    : false
   explicit features    : true
   multi-patch features : false

Detected 18 baffle edges out of 19064 edges.
Baffle points     : 26 of which attracted to :
    feature point : 0
    feature edge  : 0
    rest          : 26

Initially selected 2781 mesh points out of 9628 for reverse attraction.
Selected 5295 mesh points out of 9628 for reverse attraction.
Stringing feature edges : changed 0 points
Attraction:
    linear   : max:(0.02504305523 -1.202182457 0.01252181032) avg:(-0.0005025547213 -0.0005399669755 0.004871779847)
    feature  : max:(0 0 0) avg:(0 0 0)
Feature analysis : total master points :9432 of which attracted to :
    feature point   : 0
    feature edge    : 0
    nearest surface : 0
    rest            : 9432

--> FOAM Warning : Displacement (-0.0008654900532 -0.003401776586 -0.002835654337) at mesh point 48846 coord (42.01654448 -9.991343523 3.139963468) points through the surrounding patch faces
Smoothing displacement ...
Iteration 0
Iteration 10
Iteration 20
Displacement smoothed in = 4.73 s


Moving mesh ...

Iteration 0
Moving mesh using displacement scaling : min:1  max:1
Checking faces in error :
    non-orthogonality > 65  degrees                        : 0
    faces with face pyramid volume < 1e-13                 : 0
    faces with face-decomposition tet quality < 1e-15      : 0
    faces with concavity > 80  degrees                     : 0
    faces with skewness > 4   (internal) or 20  (boundary) : 0
    faces with interpolation weights (0..1)  < 0.05        : 0
    faces with volume ratio of neighbour cells < 0.01      : 0
    faces with face twist < 0.02                           : 0
    faces on cells with determinant < 0.001                : 0
Successfully moved mesh
Moved mesh in = 3.56 s



Morph iteration 1
-----------------
Calculating patchDisplacement as distance to nearest surface point ...
    non-zone points : attract to nearest of all non-zone surfaces
    zone points     : attract to zone surface only

Wanted displacement : average:0.188234267 min:2.812726662e-05 max:1.153093673
Calculated surface displacement in = 0.05 s


Detecting near surfaces ...
Overriding nearest with intersection of close gaps at 61 out of 9628 points.
Overriding displacement on features :
   implicit features    : false
   explicit features    : true
   multi-patch features : false

Detected 18 baffle edges out of 19064 edges.
Baffle points     : 26 of which attracted to :
    feature point : 0
    feature edge  : 0
    rest          : 26

Initially selected 2767 mesh points out of 9628 for reverse attraction.
Selected 5278 mesh points out of 9628 for reverse attraction.
Stringing feature edges : changed 0 points
Attraction:
    linear   : max:(0.02401395861 -1.152781061 0.01200725039) avg:(-0.0005281608795 -0.0005230171577 0.004569216916)
    feature  : max:(0 0 0) avg:(0 0 0)
Feature analysis : total master points :9432 of which attracted to :
    feature point   : 0
    feature edge    : 0
    nearest surface : 0
    rest            : 9432

--> FOAM Warning : Displacement (-0.001197462214 -0.005568942596 -0.004838507526) at mesh point 48685 coord (41.91344809 -10.91187974 2.994062936) points through the surrounding patch faces
Smoothing displacement ...
Iteration 0
Iteration 10
Iteration 20
Displacement smoothed in = 4.44 s


Moving mesh ...

Iteration 0
Moving mesh using displacement scaling : min:1  max:1
Checking faces in error :
    non-orthogonality > 65  degrees                        : 0
    faces with face pyramid volume < 1e-13                 : 0
    faces with face-decomposition tet quality < 1e-15      : 0
    faces with concavity > 80  degrees                     : 0
    faces with skewness > 4   (internal) or 20  (boundary) : 0
    faces with interpolation weights (0..1)  < 0.05        : 0
    faces with volume ratio of neighbour cells < 0.01      : 0
    faces with face twist < 0.02                           : 0
    faces on cells with determinant < 0.001                : 0
Successfully moved mesh
Moved mesh in = 3.57 s



Morph iteration 2
-----------------
Calculating patchDisplacement as distance to nearest surface point ...
    non-zone points : attract to nearest of all non-zone surfaces
    zone points     : attract to zone surface only

Wanted displacement : average:0.1687924124 min:2.131447537e-06 max:1.058914049
Calculated surface displacement in = 0.03 s


Detecting near surfaces ...
Overriding nearest with intersection of close gaps at 61 out of 9628 points.
Overriding displacement on features :
   implicit features    : false
   explicit features    : true
   multi-patch features : false

Detected 18 baffle edges out of 19064 edges.
Baffle points     : 26 of which attracted to :
    feature point : 0
    feature edge  : 0
    rest          : 26

Initially selected 2773 mesh points out of 9628 for reverse attraction.
Selected 5283 mesh points out of 9628 for reverse attraction.
Stringing feature edges : changed 0 points
Attraction:
    linear   : max:(0.7813173667 -0.3558235231 -0.6198643052) avg:(-0.0004964377298 -0.0004477467751 0.004111324489)
    feature  : max:(0 0 0) avg:(0 0 0)
Feature analysis : total master points :9432 of which attracted to :
    feature point   : 0
    feature edge    : 0
    nearest surface : 0
    rest            : 9432

--> FOAM Warning : Displacement (0.004629991395 -0.0008631992386 -0.009687973282) at mesh point 48685 coord (41.91225062 -10.91744868 2.989224428) points through the surrounding patch faces
Smoothing displacement ...
Iteration 0
Iteration 10
Iteration 20
Displacement smoothed in = 4.5 s


Moving mesh ...

Iteration 0
Moving mesh using displacement scaling : min:1  max:1
Checking faces in error :
    non-orthogonality > 65  degrees                        : 0
    faces with face pyramid volume < 1e-13                 : 0
    faces with face-decomposition tet quality < 1e-15      : 0
    faces with concavity > 80  degrees                     : 0
    faces with skewness > 4   (internal) or 20  (boundary) : 0
    faces with interpolation weights (0..1)  < 0.05        : 0
    faces with volume ratio of neighbour cells < 0.01      : 0
    faces with face twist < 0.02                           : 0
    faces on cells with determinant < 0.001                : 0
Successfully moved mesh
Moved mesh in = 3.52 s



Morph iteration 3
-----------------
Calculating patchDisplacement as distance to nearest surface point ...
    non-zone points : attract to nearest of all non-zone surfaces
    zone points     : attract to zone surface only

Wanted displacement : average:0.1426557795 min:7.775759146e-06 max:1.024073914
Calculated surface displacement in = 0.03 s


Detecting near surfaces ...
Overriding nearest with intersection of close gaps at 59 out of 9628 points.
Overriding displacement on features :
   implicit features    : false
   explicit features    : true
   multi-patch features : false

Detected 14 baffle edges out of 19064 edges.
Baffle points     : 20 of which attracted to :
    feature point : 0
    feature edge  : 0
    rest          : 20

Initially selected 2767 mesh points out of 9628 for reverse attraction.
Selected 5298 mesh points out of 9628 for reverse attraction.
Stringing feature edges : changed 0 points
Attraction:
    linear   : max:(0.7659298528 -0.3046841325 -0.6076564995) avg:(-0.0005804148242 -0.0002771895742 0.003184205111)
    feature  : max:(0 0 0) avg:(0 0 0)
Feature analysis : total master points :9432 of which attracted to :
    feature point   : 0
    feature edge    : 0
    nearest surface : 0
    rest            : 9432

--> FOAM Warning : Displacement (0.004707421902 -0.001560450958 -0.004963836132) at mesh point 39600 coord (-15.59309918 -5.657331682 2.329688225) points through the surrounding patch faces
Smoothing displacement ...
Iteration 0
Iteration 10
Iteration 20
Displacement smoothed in = 4.94 s


Moving mesh ...

Iteration 0
Moving mesh using displacement scaling : min:1  max:1
Checking faces in error :
    non-orthogonality > 65  degrees                        : 0
    faces with face pyramid volume < 1e-13                 : 0
    faces with face-decomposition tet quality < 1e-15      : 0
    faces with concavity > 80  degrees                     : 0
    faces with skewness > 4   (internal) or 20  (boundary) : 0
    faces with interpolation weights (0..1)  < 0.05        : 0
    faces with volume ratio of neighbour cells < 0.01      : 0
    faces with face twist < 0.02                           : 0
    faces on cells with determinant < 0.001                : 0
Successfully moved mesh
Moved mesh in = 3.61 s



Morph iteration 4
-----------------
Calculating patchDisplacement as distance to nearest surface point ...
    non-zone points : attract to nearest of all non-zone surfaces
    zone points     : attract to zone surface only

Wanted displacement : average:0.1135460854 min:2.281827137e-05 max:0.9896738791
Calculated surface displacement in = 0.03 s


Detecting near surfaces ...
Overriding nearest with intersection of close gaps at 69 out of 9628 points.
Overriding displacement on features :
   implicit features    : false
   explicit features    : true
   multi-patch features : false

Detected 6 baffle edges out of 19064 edges.
Baffle points     : 8 of which attracted to :
    feature point : 0
    feature edge  : 0
    rest          : 8

Initially selected 2772 mesh points out of 9628 for reverse attraction.
Selected 5293 mesh points out of 9628 for reverse attraction.
Stringing feature edges : changed 0 points
Attraction:
    linear   : max:(0.7494457743 0.251093787 -0.5955982945) avg:(-0.0008532500584 -0.0001542890966 0.002237645789)
    feature  : max:(0 0 0) avg:(0 0 0)
Feature analysis : total master points :9432 of which attracted to :
    feature point   : 0
    feature edge    : 0
    nearest surface : 0
    rest            : 9432

--> FOAM Warning : Displacement (-0.003677664223 -0.004968534155 -0.01296272424) at mesh point 39600 coord (-15.58839176 -5.658892133 2.324724389) points through the surrounding patch faces
Smoothing displacement ...
Iteration 0
Iteration 10
Iteration 20
Displacement smoothed in = 3.34 s


Moving mesh ...

Iteration 0
Moving mesh using displacement scaling : min:1  max:1
Checking faces in error :
    non-orthogonality > 65  degrees                        : 0
    faces with face pyramid volume < 1e-13                 : 0
    faces with face-decomposition tet quality < 1e-15      : 0
    faces with concavity > 80  degrees                     : 0
    faces with skewness > 4   (internal) or 20  (boundary) : 0
    faces with interpolation weights (0..1)  < 0.05        : 0
    faces with volume ratio of neighbour cells < 0.01      : 0
    faces with face twist < 0.02                           : 0
    faces on cells with determinant < 0.001                : 0
Successfully moved mesh
Moved mesh in = 3.02 s



Morph iteration 5
-----------------
Calculating patchDisplacement as distance to nearest surface point ...
    non-zone points : attract to nearest of all non-zone surfaces
    zone points     : attract to zone surface only

Wanted displacement : average:0.0849732134 min:2.482898264e-05 max:0.9567922214
Calculated surface displacement in = 0.03 s


Detecting near surfaces ...
Overriding nearest with intersection of close gaps at 74 out of 9628 points.
Overriding displacement on features :
   implicit features    : false
   explicit features    : true
   multi-patch features : false

Detected 14 baffle edges out of 19064 edges.
Baffle points     : 20 of which attracted to :
    feature point : 0
    feature edge  : 0
    rest          : 20

Initially selected 2766 mesh points out of 9628 for reverse attraction.
Selected 5289 mesh points out of 9628 for reverse attraction.
Stringing feature edges : changed 0 points
Attraction:
    linear   : max:(0.7366521573 -0.1691773321 -0.5866634337) avg:(-0.0007720801941 -0.0001852765188 0.001650557012)
    feature  : max:(0 0 0) avg:(0 0 0)
Feature analysis : total master points :9432 of which attracted to :
    feature point   : 0
    feature edge    : 0
    nearest surface : 0
    rest            : 9432

--> FOAM Warning : Displacement (0.008148148623 0.002953076252 -0.005734672303) at mesh point 39600 coord (-15.59206943 -5.663860667 2.311761665) points through the surrounding patch faces
Smoothing displacement ...
Iteration 0
Iteration 10
Iteration 20
Displacement smoothed in = 3.29 s


Moving mesh ...

Iteration 0
Moving mesh using displacement scaling : min:1  max:1
Checking faces in error :
    non-orthogonality > 65  degrees                        : 0
    faces with face pyramid volume < 1e-13                 : 0
    faces with face-decomposition tet quality < 1e-15      : 0
    faces with concavity > 80  degrees                     : 0
    faces with skewness > 4   (internal) or 20  (boundary) : 0
    faces with interpolation weights (0..1)  < 0.05        : 0
    faces with volume ratio of neighbour cells < 0.01      : 0
    faces with face twist < 0.02                           : 0
    faces on cells with determinant < 0.001                : 0
Successfully moved mesh
Moved mesh in = 2.82 s



Morph iteration 6
-----------------
Calculating patchDisplacement as distance to nearest surface point ...
    non-zone points : attract to nearest of all non-zone surfaces
    zone points     : attract to zone surface only

Wanted displacement : average:0.05972839089 min:3.938657632e-06 max:0.9284380204
Calculated surface displacement in = 0.03 s


Detecting near surfaces ...
Overriding nearest with intersection of close gaps at 73 out of 9628 points.
Overriding displacement on features :
   implicit features    : false
   explicit features    : true
   multi-patch features : false

Detected 18 baffle edges out of 19064 edges.
Baffle points     : 26 of which attracted to :
    feature point : 0
    feature edge  : 0
    rest          : 26

Initially selected 2738 mesh points out of 9628 for reverse attraction.
Selected 5257 mesh points out of 9628 for reverse attraction.
Stringing feature edges : changed 0 points
Attraction:
    linear   : max:(0.7175473551 -0.1434207937 -0.5714485337) avg:(-0.0006889727601 -5.988964583e-05 0.0009701151122)
    feature  : max:(0 0 0) avg:(0 0 0)
Feature analysis : total master points :9432 of which attracted to :
    feature point   : 0
    feature edge    : 0
    nearest surface : 0
    rest            : 9432

--> FOAM Warning : Displacement (0.004663159271 -0.01301978336 0.01337573698) at mesh point 57200 coord (1.001792138 -16.66372095 4.065224319) points through the surrounding patch faces
Smoothing displacement ...
Iteration 0
Iteration 10
Iteration 20
Displacement smoothed in = 3.24 s


Moving mesh ...

Iteration 0
Moving mesh using displacement scaling : min:1  max:1
Checking faces in error :
    non-orthogonality > 65  degrees                        : 0
    faces with face pyramid volume < 1e-13                 : 0
    faces with face-decomposition tet quality < 1e-15      : 5
    faces with concavity > 80  degrees                     : 0
    faces with skewness > 4   (internal) or 20  (boundary) : 0
    faces with interpolation weights (0..1)  < 0.05        : 0
    faces with volume ratio of neighbour cells < 0.01      : 0
    faces with face twist < 0.02                           : 3
    faces on cells with determinant < 0.001                : 0

Iteration 1
Moving mesh using displacement scaling : min:0.75  max:1
Checking faces in error :
    non-orthogonality > 65  degrees                        : 0
    faces with face pyramid volume < 1e-13                 : 0
    faces with face-decomposition tet quality < 1e-15      : 2
    faces with concavity > 80  degrees                     : 0
    faces with skewness > 4   (internal) or 20  (boundary) : 0
    faces with interpolation weights (0..1)  < 0.05        : 0
    faces with volume ratio of neighbour cells < 0.01      : 0
    faces with face twist < 0.02                           : 3
    faces on cells with determinant < 0.001                : 0

Iteration 2
Moving mesh using displacement scaling : min:0.5625  max:1
Checking faces in error :
    non-orthogonality > 65  degrees                        : 0
    faces with face pyramid volume < 1e-13                 : 0
    faces with face-decomposition tet quality < 1e-15      : 0
    faces with concavity > 80  degrees                     : 0
    faces with skewness > 4   (internal) or 20  (boundary) : 0
    faces with interpolation weights (0..1)  < 0.05        : 0
    faces with volume ratio of neighbour cells < 0.01      : 0
    faces with face twist < 0.02                           : 2
    faces on cells with determinant < 0.001                : 0

Iteration 3
Moving mesh using displacement scaling : min:0.421875  max:1
Checking faces in error :
    non-orthogonality > 65  degrees                        : 0
    faces with face pyramid volume < 1e-13                 : 0
    faces with face-decomposition tet quality < 1e-15      : 0
    faces with concavity > 80  degrees                     : 0
    faces with skewness > 4   (internal) or 20  (boundary) : 0
    faces with interpolation weights (0..1)  < 0.05        : 0
    faces with volume ratio of neighbour cells < 0.01      : 0
    faces with face twist < 0.02                           : 0
    faces on cells with determinant < 0.001                : 0
Successfully moved mesh
Moved mesh in = 6.11 s



Morph iteration 7
-----------------
Calculating patchDisplacement as distance to nearest surface point ...
    non-zone points : attract to nearest of all non-zone surfaces
    zone points     : attract to zone surface only

Wanted displacement : average:0.04002270821 min:3.355560982e-06 max:0.8970505336
Calculated surface displacement in = 0.03 s


Detecting near surfaces ...
Overriding nearest with intersection of close gaps at 84 out of 9628 points.
Overriding displacement on features :
   implicit features    : false
   explicit features    : true
   multi-patch features : false

Detected 22 baffle edges out of 19064 edges.
Baffle points     : 32 of which attracted to :
    feature point : 0
    feature edge  : 0
    rest          : 32

Initially selected 2744 mesh points out of 9628 for reverse attraction.
Selected 5254 mesh points out of 9628 for reverse attraction.
Stringing feature edges : changed 0 points
Attraction:
    linear   : max:(0.6954436472 -0.1046875379 -0.5568647168) avg:(-0.0004760802958 -6.052869147e-05 0.0005478789071)
    feature  : max:(0 0 0) avg:(0 0 0)
Feature analysis : total master points :9432 of which attracted to :
    feature point   : 0
    feature edge    : 0
    nearest surface : 0
    rest            : 9432

--> FOAM Warning : Displacement (0.01078938499 -0.002059581987 -0.003926836331) at mesh point 57198 coord (-0.8992173612 -16.62145624 3.996954337) points through the surrounding patch faces
Smoothing displacement ...
Iteration 0
Iteration 10
Iteration 20
Displacement smoothed in = 3.46 s


Moving mesh ...

Iteration 0
Moving mesh using displacement scaling : min:1  max:1
Checking faces in error :
    non-orthogonality > 65  degrees                        : 0
    faces with face pyramid volume < 1e-13                 : 4
    faces with face-decomposition tet quality < 1e-15      : 43
    faces with concavity > 80  degrees                     : 0
    faces with skewness > 4   (internal) or 20  (boundary) : 0
    faces with interpolation weights (0..1)  < 0.05        : 0
    faces with volume ratio of neighbour cells < 0.01      : 0
    faces with face twist < 0.02                           : 7
    faces on cells with determinant < 0.001                : 0

Iteration 1
Moving mesh using displacement scaling : min:0.75  max:1
Checking faces in error :
    non-orthogonality > 65  degrees                        : 0
    faces with face pyramid volume < 1e-13                 : 2
    faces with face-decomposition tet quality < 1e-15      : 30
    faces with concavity > 80  degrees                     : 0
    faces with skewness > 4   (internal) or 20  (boundary) : 0
    faces with interpolation weights (0..1)  < 0.05        : 0
    faces with volume ratio of neighbour cells < 0.01      : 0
    faces with face twist < 0.02                           : 10
    faces on cells with determinant < 0.001                : 0

Iteration 2
Moving mesh using displacement scaling : min:0.5625  max:1
Checking faces in error :
    non-orthogonality > 65  degrees                        : 0
    faces with face pyramid volume < 1e-13                 : 0
    faces with face-decomposition tet quality < 1e-15      : 25
    faces with concavity > 80  degrees                     : 0
    faces with skewness > 4   (internal) or 20  (boundary) : 0
    faces with interpolation weights (0..1)  < 0.05        : 0
    faces with volume ratio of neighbour cells < 0.01      : 0
    faces with face twist < 0.02                           : 9
    faces on cells with determinant < 0.001                : 0

Iteration 3
Moving mesh using displacement scaling : min:0.421875  max:1
Checking faces in error :
    non-orthogonality > 65  degrees                        : 0
    faces with face pyramid volume < 1e-13                 : 0
    faces with face-decomposition tet quality < 1e-15      : 12
    faces with concavity > 80  degrees                     : 0
    faces with skewness > 4   (internal) or 20  (boundary) : 0
    faces with interpolation weights (0..1)  < 0.05        : 0
    faces with volume ratio of neighbour cells < 0.01      : 0
    faces with face twist < 0.02                           : 11
    faces on cells with determinant < 0.001                : 0

Iteration 4
Moving mesh using displacement scaling : min:0.31640625  max:1
Checking faces in error :
    non-orthogonality > 65  degrees                        : 0
    faces with face pyramid volume < 1e-13                 : 0
    faces with face-decomposition tet quality < 1e-15      : 8
    faces with concavity > 80  degrees                     : 0
    faces with skewness > 4   (internal) or 20  (boundary) : 0
    faces with interpolation weights (0..1)  < 0.05        : 0
    faces with volume ratio of neighbour cells < 0.01      : 0
    faces with face twist < 0.02                           : 14
    faces on cells with determinant < 0.001                : 0

Iteration 5
Displacement scaling for error reduction set to 0.
Moving mesh using displacement scaling : min:0.2373046875  max:1
Checking faces in error :
    non-orthogonality > 65  degrees                        : 0
    faces with face pyramid volume < 1e-13                 : 0
    faces with face-decomposition tet quality < 1e-15      : 6
    faces with concavity > 80  degrees                     : 0
    faces with skewness > 4   (internal) or 20  (boundary) : 0
    faces with interpolation weights (0..1)  < 0.05        : 0
    faces with volume ratio of neighbour cells < 0.01      : 0
    faces with face twist < 0.02                           : 13
    faces on cells with determinant < 0.001                : 0

Iteration 6
Moving mesh using displacement scaling : min:0  max:1
Checking faces in error :
    non-orthogonality > 65  degrees                        : 0
    faces with face pyramid volume < 1e-13                 : 0
    faces with face-decomposition tet quality < 1e-15      : 0
    faces with concavity > 80  degrees                     : 0
    faces with skewness > 4   (internal) or 20  (boundary) : 0
    faces with interpolation weights (0..1)  < 0.05        : 0
    faces with volume ratio of neighbour cells < 0.01      : 0
    faces with face twist < 0.02                           : 0
    faces on cells with determinant < 0.001                : 0
Successfully moved mesh
Moved mesh in = 9.45 s



Morph iteration 8
-----------------
Calculating patchDisplacement as distance to nearest surface point ...
    non-zone points : attract to nearest of all non-zone surfaces
    zone points     : attract to zone surface only

Wanted displacement : average:0.02727339885 min:5.931037353e-07 max:0.8710893514
Calculated surface displacement in = 0.02 s


Detecting near surfaces ...
Overriding nearest with intersection of close gaps at 83 out of 9628 points.
Overriding displacement on features :
   implicit features    : false
   explicit features    : true
   multi-patch features : false

Detected 26 baffle edges out of 19064 edges.
Baffle points     : 38 of which attracted to :
    feature point : 0
    feature edge  : 0
    rest          : 38

Initially selected 2753 mesh points out of 9628 for reverse attraction.
Selected 5274 mesh points out of 9628 for reverse attraction.
Stringing feature edges : changed 0 points
Attraction:
    linear   : max:(0.6730713811 0.01097924504 -0.5528571518) avg:(-0.0004075003345 -3.938810667e-05 0.0006099156204)
    feature  : max:(0 0 0) avg:(0 0 0)
Feature analysis : total master points :9432 of which attracted to :
    feature point   : 0
    feature edge    : 0
    nearest surface : 0
    rest            : 9432

--> FOAM Warning : Displacement (0.0152652059 -0.002568759124 0.002617765015) at mesh point 47657 coord (1.078581186 -16.66742151 2.973321957) points through the surrounding patch faces
Smoothing displacement ...
Iteration 0
Iteration 10
Iteration 20
Displacement smoothed in = 3.37 s


Moving mesh ...

Iteration 0
Moving mesh using displacement scaling : min:1  max:1
Checking faces in error :
    non-orthogonality > 65  degrees                        : 0
    faces with face pyramid volume < 1e-13                 : 10
    faces with face-decomposition tet quality < 1e-15      : 63
    faces with concavity > 80  degrees                     : 0
    faces with skewness > 4   (internal) or 20  (boundary) : 0
    faces with interpolation weights (0..1)  < 0.05        : 0
    faces with volume ratio of neighbour cells < 0.01      : 0
    faces with face twist < 0.02                           : 7
    faces on cells with determinant < 0.001                : 0

Iteration 1
Moving mesh using displacement scaling : min:0.75  max:1
Checking faces in error :
    non-orthogonality > 65  degrees                        : 0
    faces with face pyramid volume < 1e-13                 : 6
    faces with face-decomposition tet quality < 1e-15      : 59
    faces with concavity > 80  degrees                     : 0
    faces with skewness > 4   (internal) or 20  (boundary) : 0
    faces with interpolation weights (0..1)  < 0.05        : 0
    faces with volume ratio of neighbour cells < 0.01      : 0
    faces with face twist < 0.02                           : 7
    faces on cells with determinant < 0.001                : 0

Iteration 2
Moving mesh using displacement scaling : min:0.5625  max:1
Checking faces in error :
    non-orthogonality > 65  degrees                        : 0
    faces with face pyramid volume < 1e-13                 : 4
    faces with face-decomposition tet quality < 1e-15      : 47
    faces with concavity > 80  degrees                     : 0
    faces with skewness > 4   (internal) or 20  (boundary) : 0
    faces with interpolation weights (0..1)  < 0.05        : 0
    faces with volume ratio of neighbour cells < 0.01      : 0
    faces with face twist < 0.02                           : 16
    faces on cells with determinant < 0.001                : 0

Iteration 3
Moving mesh using displacement scaling : min:0.421875  max:1
Checking faces in error :
    non-orthogonality > 65  degrees                        : 0
    faces with face pyramid volume < 1e-13                 : 2
    faces with face-decomposition tet quality < 1e-15      : 42
    faces with concavity > 80  degrees                     : 0
    faces with skewness > 4   (internal) or 20  (boundary) : 0
    faces with interpolation weights (0..1)  < 0.05        : 0
    faces with volume ratio of neighbour cells < 0.01      : 0
    faces with face twist < 0.02                           : 11
    faces on cells with determinant < 0.001                : 0

Iteration 4
Moving mesh using displacement scaling : min:0.31640625  max:1
Checking faces in error :
    non-orthogonality > 65  degrees                        : 0
    faces with face pyramid volume < 1e-13                 : 2
    faces with face-decomposition tet quality < 1e-15      : 29
    faces with concavity > 80  degrees                     : 0
    faces with skewness > 4   (internal) or 20  (boundary) : 0
    faces with interpolation weights (0..1)  < 0.05        : 0
    faces with volume ratio of neighbour cells < 0.01      : 0
    faces with face twist < 0.02                           : 17
    faces on cells with determinant < 0.001                : 0

Iteration 5
Displacement scaling for error reduction set to 0.
Moving mesh using displacement scaling : min:0.2373046875  max:1
Checking faces in error :
    non-orthogonality > 65  degrees                        : 0
    faces with face pyramid volume < 1e-13                 : 1
    faces with face-decomposition tet quality < 1e-15      : 20
    faces with concavity > 80  degrees                     : 0
    faces with skewness > 4   (internal) or 20  (boundary) : 0
    faces with interpolation weights (0..1)  < 0.05        : 0
    faces with volume ratio of neighbour cells < 0.01      : 0
    faces with face twist < 0.02                           : 26
    faces on cells with determinant < 0.001                : 0

Iteration 6
Moving mesh using displacement scaling : min:0  max:1
Checking faces in error :
    non-orthogonality > 65  degrees                        : 0
    faces with face pyramid volume < 1e-13                 : 0
    faces with face-decomposition tet quality < 1e-15      : 0
    faces with concavity > 80  degrees                     : 0
    faces with skewness > 4   (internal) or 20  (boundary) : 0
    faces with interpolation weights (0..1)  < 0.05        : 0
    faces with volume ratio of neighbour cells < 0.01      : 0
    faces with face twist < 0.02                           : 0
    faces on cells with determinant < 0.001                : 0
Successfully moved mesh
Moved mesh in = 9.35 s



Morph iteration 9
-----------------
Calculating patchDisplacement as distance to nearest surface point ...
    non-zone points : attract to nearest of all non-zone surfaces
    zone points     : attract to zone surface only

Wanted displacement : average:0.02060625472 min:8.41212825e-09 max:0.8500869251
Calculated surface displacement in = 0.02 s


Detecting near surfaces ...
Overriding nearest with intersection of close gaps at 101 out of 9628 points.
Overriding displacement on features :
   implicit features    : false
   explicit features    : true
   multi-patch features : false

Detected 30 baffle edges out of 19064 edges.
Baffle points     : 44 of which attracted to :
    feature point : 0
    feature edge  : 0
    rest          : 44

Initially selected 2754 mesh points out of 9628 for reverse attraction.
Selected 5276 mesh points out of 9628 for reverse attraction.
Stringing feature edges : changed 0 points
Attraction:
    linear   : max:(0.6568432731 0.01071452962 -0.5395274727) avg:(-0.0004739456125 -5.816417445e-05 0.0005790223323)
    feature  : max:(0 0 0) avg:(0 0 0)
Feature analysis : total master points :9432 of which attracted to :
    feature point   : 0
    feature edge    : 0
    nearest surface : 0
    rest            : 9432

--> FOAM Warning : Displacement (0.6384392778 0.0003942542559 0.3936111789) at mesh point 47656 coord (0.09209125333 -16.43175712 2.920974708) points through the surrounding patch faces
Smoothing displacement ...
Iteration 0
Iteration 10
Iteration 20
Displacement smoothed in = 3.32 s


Moving mesh ...

Iteration 0
Moving mesh using displacement scaling : min:1  max:1
Checking faces in error :
    non-orthogonality > 65  degrees                        : 1
    faces with face pyramid volume < 1e-13                 : 13
    faces with face-decomposition tet quality < 1e-15      : 90
    faces with concavity > 80  degrees                     : 0
    faces with skewness > 4   (internal) or 20  (boundary) : 0
    faces with interpolation weights (0..1)  < 0.05        : 0
    faces with volume ratio of neighbour cells < 0.01      : 0
    faces with face twist < 0.02                           : 10
    faces on cells with determinant < 0.001                : 0

Iteration 1
Moving mesh using displacement scaling : min:0.75  max:1
Checking faces in error :
    non-orthogonality > 65  degrees                        : 0
    faces with face pyramid volume < 1e-13                 : 10
    faces with face-decomposition tet quality < 1e-15      : 73
    faces with concavity > 80  degrees                     : 0
    faces with skewness > 4   (internal) or 20  (boundary) : 0
    faces with interpolation weights (0..1)  < 0.05        : 0
    faces with volume ratio of neighbour cells < 0.01      : 0
    faces with face twist < 0.02                           : 12
    faces on cells with determinant < 0.001                : 0

Iteration 2
Moving mesh using displacement scaling : min:0.5625  max:1
Checking faces in error :
    non-orthogonality > 65  degrees                        : 0
    faces with face pyramid volume < 1e-13                 : 7
    faces with face-decomposition tet quality < 1e-15      : 59
    faces with concavity > 80  degrees                     : 0
    faces with skewness > 4   (internal) or 20  (boundary) : 0
    faces with interpolation weights (0..1)  < 0.05        : 0
    faces with volume ratio of neighbour cells < 0.01      : 0
    faces with face twist < 0.02                           : 11
    faces on cells with determinant < 0.001                : 0

Iteration 3
Moving mesh using displacement scaling : min:0.421875  max:1
Checking faces in error :
    non-orthogonality > 65  degrees                        : 0
    faces with face pyramid volume < 1e-13                 : 2
    faces with face-decomposition tet quality < 1e-15      : 57
    faces with concavity > 80  degrees                     : 0
    faces with skewness > 4   (internal) or 20  (boundary) : 0
    faces with interpolation weights (0..1)  < 0.05        : 0
    faces with volume ratio of neighbour cells < 0.01      : 0
    faces with face twist < 0.02                           : 7
    faces on cells with determinant < 0.001                : 0

Iteration 4
Moving mesh using displacement scaling : min:0.31640625  max:1
Checking faces in error :
    non-orthogonality > 65  degrees                        : 0
    faces with face pyramid volume < 1e-13                 : 2
    faces with face-decomposition tet quality < 1e-15      : 46
    faces with concavity > 80  degrees                     : 0
    faces with skewness > 4   (internal) or 20  (boundary) : 0
    faces with interpolation weights (0..1)  < 0.05        : 0
    faces with volume ratio of neighbour cells < 0.01      : 0
    faces with face twist < 0.02                           : 12
    faces on cells with determinant < 0.001                : 0

Iteration 5
Displacement scaling for error reduction set to 0.
Moving mesh using displacement scaling : min:0.2373046875  max:1
Checking faces in error :
    non-orthogonality > 65  degrees                        : 0
    faces with face pyramid volume < 1e-13                 : 2
    faces with face-decomposition tet quality < 1e-15      : 30
    faces with concavity > 80  degrees                     : 0
    faces with skewness > 4   (internal) or 20  (boundary) : 0
    faces with interpolation weights (0..1)  < 0.05        : 0
    faces with volume ratio of neighbour cells < 0.01      : 0
    faces with face twist < 0.02                           : 24
    faces on cells with determinant < 0.001                : 0

Iteration 6
Moving mesh using displacement scaling : min:0  max:1
Checking faces in error :
    non-orthogonality > 65  degrees                        : 0
    faces with face pyramid volume < 1e-13                 : 0
    faces with face-decomposition tet quality < 1e-15      : 0
    faces with concavity > 80  degrees                     : 0
    faces with skewness > 4   (internal) or 20  (boundary) : 0
    faces with interpolation weights (0..1)  < 0.05        : 0
    faces with volume ratio of neighbour cells < 0.01      : 0
    faces with face twist < 0.02                           : 1
    faces on cells with determinant < 0.001                : 0

Iteration 7
Moving mesh using displacement scaling : min:0  max:1
Checking faces in error :
    non-orthogonality > 65  degrees                        : 0
    faces with face pyramid volume < 1e-13                 : 0
    faces with face-decomposition tet quality < 1e-15      : 0
    faces with concavity > 80  degrees                     : 0
    faces with skewness > 4   (internal) or 20  (boundary) : 0
    faces with interpolation weights (0..1)  < 0.05        : 0
    faces with volume ratio of neighbour cells < 0.01      : 0
    faces with face twist < 0.02                           : 0
    faces on cells with determinant < 0.001                : 0
Successfully moved mesh
Moved mesh in = 10.51 s


Repatching faces according to nearest surface ...
Repatched 0 faces in = 0.13 s


Edge intersection testing:
    Number of edges             : 3004401
    Number of edges to retest   : 365461
    Number of intersected edges : 9026
Merging 1470 sets of faces.

Edge intersection testing:
    Number of edges             : 3002526
    Number of edges to retest   : 5983
    Number of intersected edges : 7162

Undo iteration 0
----------------
Checking faces in error :
    non-orthogonality > 65  degrees                        : 0
    faces with face pyramid volume < 1e-13                 : 0
    faces with face-decomposition tet quality < 1e-15      : 0
    faces with concavity > 80  degrees                     : 0
    faces with skewness > 4   (internal) or 20  (boundary) : 0
    faces with interpolation weights (0..1)  < 0.05        : 0
    faces with volume ratio of neighbour cells < 0.01      : 0
    faces with face twist < 0.02                           : 0
    faces on cells with determinant < 0.001                : 0

Merging all points on surface that
- are used by only two boundary faces and
- make an angle with a cosine of more than 0.8660254038.

Removing 982 straight edge points ...

Edge intersection testing:
    Number of edges             : 3002526
    Number of edges to retest   : 5133
    Number of intersected edges : 7160

Undo iteration 0
----------------
Checking faces in error :
    non-orthogonality > 65  degrees                        : 0
    faces with face pyramid volume < 1e-13                 : 0
    faces with face-decomposition tet quality < 1e-15      : 0
    faces with concavity > 80  degrees                     : 0
    faces with skewness > 4   (internal) or 20  (boundary) : 0
    faces with interpolation weights (0..1)  < 0.05        : 0
    faces with volume ratio of neighbour cells < 0.01      : 0
    faces with face twist < 0.02                           : 0
    faces on cells with determinant < 0.001                : 0
Snapped mesh : cells:988128  faces:3002526  points:1027020
Cells per refinement level:
    0	988128
Writing mesh to time constant
Wrote mesh in = 18.52 s.
Mesh snapped in = 128.32 s.
Layer thickness specified as final layer and expansion ratio.

Shrinking and layer addition phase
----------------------------------

Using mesh parameters 
{
    maxNonOrtho     65;
    maxBoundarySkewness 20;
    maxInternalSkewness 4;
    maxConcave      80;
    minFlatness     0.5;
    minVol          1e-13;
    minTetQuality   1e-15;
    minArea         -1;
    minTwist        0.02;
    minDeterminant  0.001;
    minFaceWeight   0.05;
    minVolRatio     0.01;
    minTriangleTwist -1;
    nSmoothScale    4;
    errorReduction  0.75;
    relaxed
    {
        maxNonOrtho     75;
    }
}



Merging all faces of a cell
---------------------------
    - which are on the same patch
    - which make an angle < 130 degrees (cos:-0.6427876097)
    - as long as the resulting face doesn't become concave by more than 90 degrees
      (0=straight, 180=fully concave)

Merging 366 sets of faces.

Edge intersection testing:
    Number of edges             : 3002034
    Number of edges to retest   : 1463
    Number of intersected edges : 6687

Undo iteration 0
----------------
Checking faces in error :
    non-orthogonality > 65  degrees                        : 0
    faces with face pyramid volume < 1e-13                 : 0
    faces with face-decomposition tet quality < 1e-15      : 1
    faces with concavity > 80  degrees                     : 22
    faces with skewness > 4   (internal) or 20  (boundary) : 0
    faces with interpolation weights (0..1)  < 0.05        : 0
    faces with volume ratio of neighbour cells < 0.01      : 0
    faces with face twist < 0.02                           : 0
    faces on cells with determinant < 0.001                : 0
Masters that need to be restored:24
Edge intersection testing:
    Number of edges             : 3002059
    Number of edges to retest   : 133
    Number of intersected edges : 6720


Undo iteration 1
----------------
Checking faces in error :
    non-orthogonality > 65  degrees                        : 0
    faces with face pyramid volume < 1e-13                 : 0
    faces with face-decomposition tet quality < 1e-15      : 0
    faces with concavity > 80  degrees                     : 0
    faces with skewness > 4   (internal) or 20  (boundary) : 0
    faces with interpolation weights (0..1)  < 0.05        : 0
    faces with volume ratio of neighbour cells < 0.01      : 0
    faces with face twist < 0.02                           : 0
    faces on cells with determinant < 0.001                : 0

Merging all points on surface that
- are used by only two boundary faces and
- make an angle with a cosine of more than -0.6427876097.

Removing 314 straight edge points ...

Edge intersection testing:
    Number of edges             : 3002059
    Number of edges to retest   : 1628
    Number of intersected edges : 6690

Undo iteration 0
----------------
Checking faces in error :
    non-orthogonality > 65  degrees                        : 0
    faces with face pyramid volume < 1e-13                 : 0
    faces with face-decomposition tet quality < 1e-15      : 0
    faces with concavity > 80  degrees                     : 0
    faces with skewness > 4   (internal) or 20  (boundary) : 0
    faces with interpolation weights (0..1)  < 0.05        : 0
    faces with volume ratio of neighbour cells < 0.01      : 0
    faces with face twist < 0.02                           : 0
    faces on cells with determinant < 0.001                : 0

No layers to generate ...
Layer mesh : cells:988128  faces:3002059  points:1026581
Cells per refinement level:
    0	988128
Writing mesh to time constant
Wrote mesh in = 18.9 s.
Layers added in = 18.9 s.
Checking final mesh ...
Checking faces in error :
    non-orthogonality > 65  degrees                        : 0
    faces with face pyramid volume < 1e-13                 : 0
    faces with face-decomposition tet quality < 1e-15      : 0
    faces with concavity > 80  degrees                     : 0
    faces with skewness > 4   (internal) or 20  (boundary) : 0
    faces with interpolation weights (0..1)  < 0.05        : 0
    faces with volume ratio of neighbour cells < 0.01      : 0
    faces with face twist < 0.02                           : 0
    faces on cells with determinant < 0.001                : 0
Finished meshing without any errors
Finished meshing in = 710.56 s.
End

Finalising parallel run
